version 2
run nodebug-0-20140628-17:22:51-3320
attr configname nodebug
attr datetime 20140628-17:22:51
attr experiment nodebug
attr inifile omnetpp.ini
attr iterationvars ""
attr iterationvars2 $repetition=0
attr measurement ""
attr network Floatingscenario
attr processid 3320
attr repetition 0
attr replication #0
attr resultdir results
attr runnumber 0
attr seedset 0

scalar Floatingscenario.node[6].nic.phy80211p 	busyTime 	3.110662358643e-05
scalar Floatingscenario.node[6].nic.mac1609_4 	ReceivedUnicastPackets 	0
scalar Floatingscenario.node[6].nic.mac1609_4 	ReceivedBroadcasts 	11
scalar Floatingscenario.node[6].nic.mac1609_4 	SentPackets 	3
scalar Floatingscenario.node[6].nic.mac1609_4 	SNIRLostPackets 	0
scalar Floatingscenario.node[6].nic.mac1609_4 	RXTXLostPackets 	0
scalar Floatingscenario.node[6].nic.mac1609_4 	TotalLostPackets 	0
scalar Floatingscenario.node[6].nic.mac1609_4 	DroppedPacketsInMac 	0
scalar Floatingscenario.node[6].nic.mac1609_4 	TooLittleTime 	0
scalar Floatingscenario.node[6].nic.mac1609_4 	TimesIntoBackoff 	3
scalar Floatingscenario.node[6].nic.mac1609_4 	SlotsBackoff 	12
scalar Floatingscenario.node[6].nic.mac1609_4 	NumInternalContention 	0
scalar Floatingscenario.node[6].nic.mac1609_4 	totalBusyTime 	0.005009
scalar Floatingscenario.node[6].mobility 	startTime 	6.1
scalar Floatingscenario.node[6].mobility 	totalTime 	123.7
scalar Floatingscenario.node[6].mobility 	stopTime 	129.9
scalar Floatingscenario.node[6].mobility 	minSpeed 	3.322853211367
scalar Floatingscenario.node[6].mobility 	maxSpeed 	27.779792706172
scalar Floatingscenario.node[6].mobility 	totalDistance 	2155.1619640692
scalar Floatingscenario.node[6].mobility 	totalCO2Emission 	496.13052159401
scalar Floatingscenario.node[12].nic.phy80211p 	busyTime 	0.00019271844660194
scalar Floatingscenario.node[12].nic.mac1609_4 	ReceivedUnicastPackets 	0
scalar Floatingscenario.node[12].nic.mac1609_4 	ReceivedBroadcasts 	49
scalar Floatingscenario.node[12].nic.mac1609_4 	SentPackets 	3
scalar Floatingscenario.node[12].nic.mac1609_4 	SNIRLostPackets 	30
scalar Floatingscenario.node[12].nic.mac1609_4 	RXTXLostPackets 	0
scalar Floatingscenario.node[12].nic.mac1609_4 	TotalLostPackets 	30
scalar Floatingscenario.node[12].nic.mac1609_4 	DroppedPacketsInMac 	0
scalar Floatingscenario.node[12].nic.mac1609_4 	TooLittleTime 	0
scalar Floatingscenario.node[12].nic.mac1609_4 	TimesIntoBackoff 	5
scalar Floatingscenario.node[12].nic.mac1609_4 	SlotsBackoff 	14
scalar Floatingscenario.node[12].nic.mac1609_4 	NumInternalContention 	0
scalar Floatingscenario.node[12].nic.mac1609_4 	totalBusyTime 	0.024482175393
scalar Floatingscenario.node[12].mobility 	startTime 	12.1
scalar Floatingscenario.node[12].mobility 	totalTime 	154.4
scalar Floatingscenario.node[12].mobility 	stopTime 	166.6
scalar Floatingscenario.node[12].mobility 	minSpeed 	3.3091279300715
scalar Floatingscenario.node[12].mobility 	maxSpeed 	18.233286509991
scalar Floatingscenario.node[12].mobility 	totalDistance 	1844.0974221777
scalar Floatingscenario.node[12].mobility 	totalCO2Emission 	446.01474361401
scalar Floatingscenario.node[54].nic.phy80211p 	busyTime 	0.00030464012251149
scalar Floatingscenario.node[54].nic.mac1609_4 	ReceivedUnicastPackets 	0
scalar Floatingscenario.node[54].nic.mac1609_4 	ReceivedBroadcasts 	72
scalar Floatingscenario.node[54].nic.mac1609_4 	SentPackets 	0
scalar Floatingscenario.node[54].nic.mac1609_4 	SNIRLostPackets 	34
scalar Floatingscenario.node[54].nic.mac1609_4 	RXTXLostPackets 	0
scalar Floatingscenario.node[54].nic.mac1609_4 	TotalLostPackets 	34
scalar Floatingscenario.node[54].nic.mac1609_4 	DroppedPacketsInMac 	0
scalar Floatingscenario.node[54].nic.mac1609_4 	TooLittleTime 	0
scalar Floatingscenario.node[54].nic.mac1609_4 	TimesIntoBackoff 	0
scalar Floatingscenario.node[54].nic.mac1609_4 	SlotsBackoff 	0
scalar Floatingscenario.node[54].nic.mac1609_4 	NumInternalContention 	0
scalar Floatingscenario.node[54].nic.mac1609_4 	totalBusyTime 	0.033218493214
scalar Floatingscenario.node[54].mobility 	startTime 	54.1
scalar Floatingscenario.node[54].mobility 	totalTime 	130.5
scalar Floatingscenario.node[54].mobility 	stopTime 	184.7
scalar Floatingscenario.node[54].mobility 	minSpeed 	0.037920676705795
scalar Floatingscenario.node[54].mobility 	maxSpeed 	22.219831926851
scalar Floatingscenario.node[54].mobility 	totalDistance 	1623.8008807067
scalar Floatingscenario.node[54].mobility 	totalCO2Emission 	430.51330591628
scalar Floatingscenario.node[21].nic.phy80211p 	busyTime 	0.00014569369369369
scalar Floatingscenario.node[21].nic.mac1609_4 	ReceivedUnicastPackets 	0
scalar Floatingscenario.node[21].nic.mac1609_4 	ReceivedBroadcasts 	55
scalar Floatingscenario.node[21].nic.mac1609_4 	SentPackets 	0
scalar Floatingscenario.node[21].nic.mac1609_4 	SNIRLostPackets 	11
scalar Floatingscenario.node[21].nic.mac1609_4 	RXTXLostPackets 	0
scalar Floatingscenario.node[21].nic.mac1609_4 	TotalLostPackets 	11
scalar Floatingscenario.node[21].nic.mac1609_4 	DroppedPacketsInMac 	0
scalar Floatingscenario.node[21].nic.mac1609_4 	TooLittleTime 	0
scalar Floatingscenario.node[21].nic.mac1609_4 	TimesIntoBackoff 	0
scalar Floatingscenario.node[21].nic.mac1609_4 	SlotsBackoff 	0
scalar Floatingscenario.node[21].nic.mac1609_4 	NumInternalContention 	0
scalar Floatingscenario.node[21].nic.mac1609_4 	totalBusyTime 	0.023204665283
scalar Floatingscenario.node[21].mobility 	startTime 	21.1
scalar Floatingscenario.node[21].mobility 	totalTime 	166.4
scalar Floatingscenario.node[21].mobility 	stopTime 	187.6
scalar Floatingscenario.node[21].mobility 	minSpeed 	0.90791427083313
scalar Floatingscenario.node[21].mobility 	maxSpeed 	22.21986643774
scalar Floatingscenario.node[21].mobility 	totalDistance 	2332.7324183784
scalar Floatingscenario.node[21].mobility 	totalCO2Emission 	536.43205937297
scalar Floatingscenario.node[26].nic.phy80211p 	busyTime 	9.1679999999999e-05
scalar Floatingscenario.node[26].nic.mac1609_4 	ReceivedUnicastPackets 	0
scalar Floatingscenario.node[26].nic.mac1609_4 	ReceivedBroadcasts 	44
scalar Floatingscenario.node[26].nic.mac1609_4 	SentPackets 	7
scalar Floatingscenario.node[26].nic.mac1609_4 	SNIRLostPackets 	0
scalar Floatingscenario.node[26].nic.mac1609_4 	RXTXLostPackets 	0
scalar Floatingscenario.node[26].nic.mac1609_4 	TotalLostPackets 	0
scalar Floatingscenario.node[26].nic.mac1609_4 	DroppedPacketsInMac 	0
scalar Floatingscenario.node[26].nic.mac1609_4 	TooLittleTime 	0
scalar Floatingscenario.node[26].nic.mac1609_4 	TimesIntoBackoff 	7
scalar Floatingscenario.node[26].nic.mac1609_4 	SlotsBackoff 	19
scalar Floatingscenario.node[26].nic.mac1609_4 	NumInternalContention 	0
scalar Floatingscenario.node[26].nic.mac1609_4 	totalBusyTime 	0.018618
scalar Floatingscenario.node[26].mobility 	startTime 	26.1
scalar Floatingscenario.node[26].mobility 	totalTime 	174.9
scalar Floatingscenario.node[26].mobility 	stopTime 	201.1
scalar Floatingscenario.node[26].mobility 	minSpeed 	0.00091668224797328
scalar Floatingscenario.node[26].mobility 	maxSpeed 	27.779939378768
scalar Floatingscenario.node[26].mobility 	totalDistance 	2559.969017907
scalar Floatingscenario.node[26].mobility 	totalCO2Emission 	764.78578111575
scalar Floatingscenario.node[28].nic.phy80211p 	busyTime 	0.00026100840336134
scalar Floatingscenario.node[28].nic.mac1609_4 	ReceivedUnicastPackets 	0
scalar Floatingscenario.node[28].nic.mac1609_4 	ReceivedBroadcasts 	93
scalar Floatingscenario.node[28].nic.mac1609_4 	SentPackets 	12
scalar Floatingscenario.node[28].nic.mac1609_4 	SNIRLostPackets 	33
scalar Floatingscenario.node[28].nic.mac1609_4 	RXTXLostPackets 	2
scalar Floatingscenario.node[28].nic.mac1609_4 	TotalLostPackets 	35
scalar Floatingscenario.node[28].nic.mac1609_4 	DroppedPacketsInMac 	0
scalar Floatingscenario.node[28].nic.mac1609_4 	TooLittleTime 	0
scalar Floatingscenario.node[28].nic.mac1609_4 	TimesIntoBackoff 	19
scalar Floatingscenario.node[28].nic.mac1609_4 	SlotsBackoff 	62
scalar Floatingscenario.node[28].nic.mac1609_4 	NumInternalContention 	0
scalar Floatingscenario.node[28].nic.mac1609_4 	totalBusyTime 	0.044339574308
scalar Floatingscenario.node[28].mobility 	startTime 	28.1
scalar Floatingscenario.node[28].mobility 	totalTime 	178.4
scalar Floatingscenario.node[28].mobility 	stopTime 	206.6
scalar Floatingscenario.node[28].mobility 	minSpeed 	3.0361245908045e-06
scalar Floatingscenario.node[28].mobility 	maxSpeed 	22.219604025793
scalar Floatingscenario.node[28].mobility 	totalDistance 	2334.073920884
scalar Floatingscenario.node[28].mobility 	totalCO2Emission 	529.32461411239
scalar Floatingscenario.node[49].nic.phy80211p 	busyTime 	0.0004884555984556
scalar Floatingscenario.node[49].nic.mac1609_4 	ReceivedUnicastPackets 	0
scalar Floatingscenario.node[49].nic.mac1609_4 	ReceivedBroadcasts 	159
scalar Floatingscenario.node[49].nic.mac1609_4 	SentPackets 	1
scalar Floatingscenario.node[49].nic.mac1609_4 	SNIRLostPackets 	78
scalar Floatingscenario.node[49].nic.mac1609_4 	RXTXLostPackets 	0
scalar Floatingscenario.node[49].nic.mac1609_4 	TotalLostPackets 	78
scalar Floatingscenario.node[49].nic.mac1609_4 	DroppedPacketsInMac 	0
scalar Floatingscenario.node[49].nic.mac1609_4 	TooLittleTime 	0
scalar Floatingscenario.node[49].nic.mac1609_4 	TimesIntoBackoff 	1
scalar Floatingscenario.node[49].nic.mac1609_4 	SlotsBackoff 	1
scalar Floatingscenario.node[49].nic.mac1609_4 	NumInternalContention 	0
scalar Floatingscenario.node[49].nic.mac1609_4 	totalBusyTime 	0.073685975556
scalar Floatingscenario.node[49].mobility 	startTime 	49.1
scalar Floatingscenario.node[49].mobility 	totalTime 	181.2
scalar Floatingscenario.node[49].mobility 	stopTime 	230.4
scalar Floatingscenario.node[49].mobility 	minSpeed 	5.8568707558644e-14
scalar Floatingscenario.node[49].mobility 	maxSpeed 	22.219639334939
scalar Floatingscenario.node[49].mobility 	totalDistance 	2040.5088056704
scalar Floatingscenario.node[49].mobility 	totalCO2Emission 	533.22462066537
scalar Floatingscenario.node[4].nic.phy80211p 	busyTime 	0.00053550350262697
scalar Floatingscenario.node[4].nic.mac1609_4 	ReceivedUnicastPackets 	0
scalar Floatingscenario.node[4].nic.mac1609_4 	ReceivedBroadcasts 	221
scalar Floatingscenario.node[4].nic.mac1609_4 	SentPackets 	23
scalar Floatingscenario.node[4].nic.mac1609_4 	SNIRLostPackets 	104
scalar Floatingscenario.node[4].nic.mac1609_4 	RXTXLostPackets 	8
scalar Floatingscenario.node[4].nic.mac1609_4 	TotalLostPackets 	112
scalar Floatingscenario.node[4].nic.mac1609_4 	DroppedPacketsInMac 	0
scalar Floatingscenario.node[4].nic.mac1609_4 	TooLittleTime 	0
scalar Floatingscenario.node[4].nic.mac1609_4 	TimesIntoBackoff 	39
scalar Floatingscenario.node[4].nic.mac1609_4 	SlotsBackoff 	134
scalar Floatingscenario.node[4].nic.mac1609_4 	NumInternalContention 	0
scalar Floatingscenario.node[4].nic.mac1609_4 	totalBusyTime 	0.111201529686
scalar Floatingscenario.node[4].mobility 	startTime 	4.1
scalar Floatingscenario.node[4].mobility 	totalTime 	228.3
scalar Floatingscenario.node[4].mobility 	stopTime 	232.5
scalar Floatingscenario.node[4].mobility 	minSpeed 	1.1256911220885e-13
scalar Floatingscenario.node[4].mobility 	maxSpeed 	22.219992804453
scalar Floatingscenario.node[4].mobility 	totalDistance 	2044.6321680316
scalar Floatingscenario.node[4].mobility 	totalCO2Emission 	594.98942255742
scalar Floatingscenario.node[18].nic.phy80211p 	busyTime 	0.0010520853932584
scalar Floatingscenario.node[18].nic.mac1609_4 	ReceivedUnicastPackets 	0
scalar Floatingscenario.node[18].nic.mac1609_4 	ReceivedBroadcasts 	234
scalar Floatingscenario.node[18].nic.mac1609_4 	SentPackets 	27
scalar Floatingscenario.node[18].nic.mac1609_4 	SNIRLostPackets 	383
scalar Floatingscenario.node[18].nic.mac1609_4 	RXTXLostPackets 	0
scalar Floatingscenario.node[18].nic.mac1609_4 	TotalLostPackets 	383
scalar Floatingscenario.node[18].nic.mac1609_4 	DroppedPacketsInMac 	0
scalar Floatingscenario.node[18].nic.mac1609_4 	TooLittleTime 	0
scalar Floatingscenario.node[18].nic.mac1609_4 	TimesIntoBackoff 	27
scalar Floatingscenario.node[18].nic.mac1609_4 	SlotsBackoff 	91
scalar Floatingscenario.node[18].nic.mac1609_4 	NumInternalContention 	0
scalar Floatingscenario.node[18].nic.mac1609_4 	totalBusyTime 	0.148880645036
scalar Floatingscenario.node[18].mobility 	startTime 	18.1
scalar Floatingscenario.node[18].mobility 	totalTime 	222.4
scalar Floatingscenario.node[18].mobility 	stopTime 	240.6
scalar Floatingscenario.node[18].mobility 	minSpeed 	1.1255084684089e-13
scalar Floatingscenario.node[18].mobility 	maxSpeed 	27.779189090237
scalar Floatingscenario.node[18].mobility 	totalDistance 	1970.1110680315
scalar Floatingscenario.node[18].mobility 	totalCO2Emission 	712.12889233273
scalar Floatingscenario.node[98].nic.phy80211p 	busyTime 	0.00018168713639302
scalar Floatingscenario.node[98].nic.mac1609_4 	ReceivedUnicastPackets 	0
scalar Floatingscenario.node[98].nic.mac1609_4 	ReceivedBroadcasts 	72
scalar Floatingscenario.node[98].nic.mac1609_4 	SentPackets 	5
scalar Floatingscenario.node[98].nic.mac1609_4 	SNIRLostPackets 	3
scalar Floatingscenario.node[98].nic.mac1609_4 	RXTXLostPackets 	0
scalar Floatingscenario.node[98].nic.mac1609_4 	TotalLostPackets 	3
scalar Floatingscenario.node[98].nic.mac1609_4 	DroppedPacketsInMac 	0
scalar Floatingscenario.node[98].nic.mac1609_4 	TooLittleTime 	0
scalar Floatingscenario.node[98].nic.mac1609_4 	TimesIntoBackoff 	9
scalar Floatingscenario.node[98].nic.mac1609_4 	SlotsBackoff 	40
scalar Floatingscenario.node[98].nic.mac1609_4 	NumInternalContention 	0
scalar Floatingscenario.node[98].nic.mac1609_4 	totalBusyTime 	0.029230940062
scalar Floatingscenario.node[98].mobility 	startTime 	98.1
scalar Floatingscenario.node[98].mobility 	totalTime 	154.6
scalar Floatingscenario.node[98].mobility 	stopTime 	252.8
scalar Floatingscenario.node[98].mobility 	minSpeed 	9.9416579676567e-07
scalar Floatingscenario.node[98].mobility 	maxSpeed 	26.414952500623
scalar Floatingscenario.node[98].mobility 	totalDistance 	2096.0200480328
scalar Floatingscenario.node[98].mobility 	totalCO2Emission 	627.98738058171
scalar Floatingscenario.node[63].nic.phy80211p 	busyTime 	0.0011027731958763
scalar Floatingscenario.node[63].nic.mac1609_4 	ReceivedUnicastPackets 	0
scalar Floatingscenario.node[63].nic.mac1609_4 	ReceivedBroadcasts 	225
scalar Floatingscenario.node[63].nic.mac1609_4 	SentPackets 	0
scalar Floatingscenario.node[63].nic.mac1609_4 	SNIRLostPackets 	337
scalar Floatingscenario.node[63].nic.mac1609_4 	RXTXLostPackets 	0
scalar Floatingscenario.node[63].nic.mac1609_4 	TotalLostPackets 	337
scalar Floatingscenario.node[63].nic.mac1609_4 	DroppedPacketsInMac 	0
scalar Floatingscenario.node[63].nic.mac1609_4 	TooLittleTime 	0
scalar Floatingscenario.node[63].nic.mac1609_4 	TimesIntoBackoff 	0
scalar Floatingscenario.node[63].nic.mac1609_4 	SlotsBackoff 	0
scalar Floatingscenario.node[63].nic.mac1609_4 	NumInternalContention 	0
scalar Floatingscenario.node[63].nic.mac1609_4 	totalBusyTime 	0.13361381006
scalar Floatingscenario.node[63].mobility 	startTime 	63.1
scalar Floatingscenario.node[63].mobility 	totalTime 	193.9
scalar Floatingscenario.node[63].mobility 	stopTime 	257.1
scalar Floatingscenario.node[63].mobility 	minSpeed 	5.8568350729618e-14
scalar Floatingscenario.node[63].mobility 	maxSpeed 	22.219910423264
scalar Floatingscenario.node[63].mobility 	totalDistance 	2122.5051601356
scalar Floatingscenario.node[63].mobility 	totalCO2Emission 	536.310299488
scalar Floatingscenario.node[10].nic.phy80211p 	busyTime 	6.5728463676062e-05
scalar Floatingscenario.node[10].nic.mac1609_4 	ReceivedUnicastPackets 	0
scalar Floatingscenario.node[10].nic.mac1609_4 	ReceivedBroadcasts 	43
scalar Floatingscenario.node[10].nic.mac1609_4 	SentPackets 	7
scalar Floatingscenario.node[10].nic.mac1609_4 	SNIRLostPackets 	2
scalar Floatingscenario.node[10].nic.mac1609_4 	RXTXLostPackets 	0
scalar Floatingscenario.node[10].nic.mac1609_4 	TotalLostPackets 	2
scalar Floatingscenario.node[10].nic.mac1609_4 	DroppedPacketsInMac 	0
scalar Floatingscenario.node[10].nic.mac1609_4 	TooLittleTime 	0
scalar Floatingscenario.node[10].nic.mac1609_4 	TimesIntoBackoff 	7
scalar Floatingscenario.node[10].nic.mac1609_4 	SlotsBackoff 	8
scalar Floatingscenario.node[10].nic.mac1609_4 	NumInternalContention 	0
scalar Floatingscenario.node[10].nic.mac1609_4 	totalBusyTime 	0.018773889204
scalar Floatingscenario.node[10].mobility 	startTime 	10.1
scalar Floatingscenario.node[10].mobility 	totalTime 	251.8
scalar Floatingscenario.node[10].mobility 	stopTime 	262
scalar Floatingscenario.node[10].mobility 	minSpeed 	5.8544334616887e-14
scalar Floatingscenario.node[10].mobility 	maxSpeed 	27.779937864945
scalar Floatingscenario.node[10].mobility 	totalDistance 	2105.4477925169
scalar Floatingscenario.node[10].mobility 	totalCO2Emission 	717.50452845397
scalar Floatingscenario.node[112].nic.phy80211p 	busyTime 	0.00047341299019608
scalar Floatingscenario.node[112].nic.mac1609_4 	ReceivedUnicastPackets 	0
scalar Floatingscenario.node[112].nic.mac1609_4 	ReceivedBroadcasts 	129
scalar Floatingscenario.node[112].nic.mac1609_4 	SentPackets 	4
scalar Floatingscenario.node[112].nic.mac1609_4 	SNIRLostPackets 	76
scalar Floatingscenario.node[112].nic.mac1609_4 	RXTXLostPackets 	0
scalar Floatingscenario.node[112].nic.mac1609_4 	TotalLostPackets 	76
scalar Floatingscenario.node[112].nic.mac1609_4 	DroppedPacketsInMac 	0
scalar Floatingscenario.node[112].nic.mac1609_4 	TooLittleTime 	0
scalar Floatingscenario.node[112].nic.mac1609_4 	TimesIntoBackoff 	5
scalar Floatingscenario.node[112].nic.mac1609_4 	SlotsBackoff 	19
scalar Floatingscenario.node[112].nic.mac1609_4 	NumInternalContention 	0
scalar Floatingscenario.node[112].nic.mac1609_4 	totalBusyTime 	0.061676877863
scalar Floatingscenario.node[112].mobility 	startTime 	112.1
scalar Floatingscenario.node[112].mobility 	totalTime 	163.1
scalar Floatingscenario.node[112].mobility 	stopTime 	275.3
scalar Floatingscenario.node[112].mobility 	minSpeed 	2.3691921179778e-11
scalar Floatingscenario.node[112].mobility 	maxSpeed 	23.170036759581
scalar Floatingscenario.node[112].mobility 	totalDistance 	2092.0174021757
scalar Floatingscenario.node[112].mobility 	totalCO2Emission 	560.40504546594
scalar Floatingscenario.node[85].nic.phy80211p 	busyTime 	0.00059663249615582
scalar Floatingscenario.node[85].nic.mac1609_4 	ReceivedUnicastPackets 	0
scalar Floatingscenario.node[85].nic.mac1609_4 	ReceivedBroadcasts 	204
scalar Floatingscenario.node[85].nic.mac1609_4 	SentPackets 	11
scalar Floatingscenario.node[85].nic.mac1609_4 	SNIRLostPackets 	103
scalar Floatingscenario.node[85].nic.mac1609_4 	RXTXLostPackets 	1
scalar Floatingscenario.node[85].nic.mac1609_4 	TotalLostPackets 	104
scalar Floatingscenario.node[85].nic.mac1609_4 	DroppedPacketsInMac 	0
scalar Floatingscenario.node[85].nic.mac1609_4 	TooLittleTime 	0
scalar Floatingscenario.node[85].nic.mac1609_4 	TimesIntoBackoff 	14
scalar Floatingscenario.node[85].nic.mac1609_4 	SlotsBackoff 	48
scalar Floatingscenario.node[85].nic.mac1609_4 	NumInternalContention 	0
scalar Floatingscenario.node[85].nic.mac1609_4 	totalBusyTime 	0.098522273698
scalar Floatingscenario.node[85].mobility 	startTime 	85.1
scalar Floatingscenario.node[85].mobility 	totalTime 	195
scalar Floatingscenario.node[85].mobility 	stopTime 	280.2
scalar Floatingscenario.node[85].mobility 	minSpeed 	5.8538022855591e-14
scalar Floatingscenario.node[85].mobility 	maxSpeed 	22.2198083615
scalar Floatingscenario.node[85].mobility 	totalDistance 	1983.1400904011
scalar Floatingscenario.node[85].mobility 	totalCO2Emission 	538.78080906308
scalar Floatingscenario.node[7].nic.phy80211p 	busyTime 	0.00065336608442503
scalar Floatingscenario.node[7].nic.mac1609_4 	ReceivedUnicastPackets 	0
scalar Floatingscenario.node[7].nic.mac1609_4 	ReceivedBroadcasts 	251
scalar Floatingscenario.node[7].nic.mac1609_4 	SentPackets 	5
scalar Floatingscenario.node[7].nic.mac1609_4 	SNIRLostPackets 	222
scalar Floatingscenario.node[7].nic.mac1609_4 	RXTXLostPackets 	0
scalar Floatingscenario.node[7].nic.mac1609_4 	TotalLostPackets 	222
scalar Floatingscenario.node[7].nic.mac1609_4 	DroppedPacketsInMac 	0
scalar Floatingscenario.node[7].nic.mac1609_4 	TooLittleTime 	0
scalar Floatingscenario.node[7].nic.mac1609_4 	TimesIntoBackoff 	5
scalar Floatingscenario.node[7].nic.mac1609_4 	SlotsBackoff 	16
scalar Floatingscenario.node[7].nic.mac1609_4 	NumInternalContention 	0
scalar Floatingscenario.node[7].nic.mac1609_4 	totalBusyTime 	0.131426713513
scalar Floatingscenario.node[7].mobility 	startTime 	7.1
scalar Floatingscenario.node[7].mobility 	totalTime 	274.7
scalar Floatingscenario.node[7].mobility 	stopTime 	281.9
scalar Floatingscenario.node[7].mobility 	minSpeed 	1.1254264191807e-13
scalar Floatingscenario.node[7].mobility 	maxSpeed 	22.219547443429
scalar Floatingscenario.node[7].mobility 	totalDistance 	2719.8281225275
scalar Floatingscenario.node[7].mobility 	totalCO2Emission 	744.88528362123
scalar Floatingscenario.node[37].nic.phy80211p 	busyTime 	0.00087628072957969
scalar Floatingscenario.node[37].nic.mac1609_4 	ReceivedUnicastPackets 	0
scalar Floatingscenario.node[37].nic.mac1609_4 	ReceivedBroadcasts 	231
scalar Floatingscenario.node[37].nic.mac1609_4 	SentPackets 	5
scalar Floatingscenario.node[37].nic.mac1609_4 	SNIRLostPackets 	351
scalar Floatingscenario.node[37].nic.mac1609_4 	RXTXLostPackets 	0
scalar Floatingscenario.node[37].nic.mac1609_4 	TotalLostPackets 	351
scalar Floatingscenario.node[37].nic.mac1609_4 	DroppedPacketsInMac 	0
scalar Floatingscenario.node[37].nic.mac1609_4 	TooLittleTime 	0
scalar Floatingscenario.node[37].nic.mac1609_4 	TimesIntoBackoff 	5
scalar Floatingscenario.node[37].nic.mac1609_4 	SlotsBackoff 	9
scalar Floatingscenario.node[37].nic.mac1609_4 	NumInternalContention 	0
scalar Floatingscenario.node[37].nic.mac1609_4 	totalBusyTime 	0.138173439395
scalar Floatingscenario.node[37].mobility 	startTime 	37.1
scalar Floatingscenario.node[37].mobility 	totalTime 	252.1
scalar Floatingscenario.node[37].mobility 	stopTime 	289.3
scalar Floatingscenario.node[37].mobility 	minSpeed 	0
scalar Floatingscenario.node[37].mobility 	maxSpeed 	27.014232862117
scalar Floatingscenario.node[37].mobility 	totalDistance 	2949.4442097467
scalar Floatingscenario.node[37].mobility 	totalCO2Emission 	797.40368012301
scalar Floatingscenario.node[13].nic.phy80211p 	busyTime 	0.0014949893842888
scalar Floatingscenario.node[13].nic.mac1609_4 	ReceivedUnicastPackets 	0
scalar Floatingscenario.node[13].nic.mac1609_4 	ReceivedBroadcasts 	500
scalar Floatingscenario.node[13].nic.mac1609_4 	SentPackets 	0
scalar Floatingscenario.node[13].nic.mac1609_4 	SNIRLostPackets 	608
scalar Floatingscenario.node[13].nic.mac1609_4 	RXTXLostPackets 	0
scalar Floatingscenario.node[13].nic.mac1609_4 	TotalLostPackets 	608
scalar Floatingscenario.node[13].nic.mac1609_4 	DroppedPacketsInMac 	0
scalar Floatingscenario.node[13].nic.mac1609_4 	TooLittleTime 	0
scalar Floatingscenario.node[13].nic.mac1609_4 	TimesIntoBackoff 	0
scalar Floatingscenario.node[13].nic.mac1609_4 	SlotsBackoff 	0
scalar Floatingscenario.node[13].nic.mac1609_4 	NumInternalContention 	0
scalar Floatingscenario.node[13].nic.mac1609_4 	totalBusyTime 	0.275730947719
scalar Floatingscenario.node[13].mobility 	startTime 	13.1
scalar Floatingscenario.node[13].mobility 	totalTime 	282.5
scalar Floatingscenario.node[13].mobility 	stopTime 	295.7
scalar Floatingscenario.node[13].mobility 	minSpeed 	1.125395290997e-13
scalar Floatingscenario.node[13].mobility 	maxSpeed 	27.779770638815
scalar Floatingscenario.node[13].mobility 	totalDistance 	2032.6251565221
scalar Floatingscenario.node[13].mobility 	totalCO2Emission 	700.53337660398
scalar Floatingscenario.node[87].nic.phy80211p 	busyTime 	0.00085803921568627
scalar Floatingscenario.node[87].nic.mac1609_4 	ReceivedUnicastPackets 	0
scalar Floatingscenario.node[87].nic.mac1609_4 	ReceivedBroadcasts 	226
scalar Floatingscenario.node[87].nic.mac1609_4 	SentPackets 	7
scalar Floatingscenario.node[87].nic.mac1609_4 	SNIRLostPackets 	246
scalar Floatingscenario.node[87].nic.mac1609_4 	RXTXLostPackets 	5
scalar Floatingscenario.node[87].nic.mac1609_4 	TotalLostPackets 	251
scalar Floatingscenario.node[87].nic.mac1609_4 	DroppedPacketsInMac 	0
scalar Floatingscenario.node[87].nic.mac1609_4 	TooLittleTime 	0
scalar Floatingscenario.node[87].nic.mac1609_4 	TimesIntoBackoff 	10
scalar Floatingscenario.node[87].nic.mac1609_4 	SlotsBackoff 	29
scalar Floatingscenario.node[87].nic.mac1609_4 	NumInternalContention 	0
scalar Floatingscenario.node[87].nic.mac1609_4 	totalBusyTime 	0.127219055439
scalar Floatingscenario.node[87].mobility 	startTime 	87.1
scalar Floatingscenario.node[87].mobility 	totalTime 	209
scalar Floatingscenario.node[87].mobility 	stopTime 	296.2
scalar Floatingscenario.node[87].mobility 	minSpeed 	1.125490852184e-13
scalar Floatingscenario.node[87].mobility 	maxSpeed 	22.219768551656
scalar Floatingscenario.node[87].mobility 	totalDistance 	2175.787518934
scalar Floatingscenario.node[87].mobility 	totalCO2Emission 	555.80492468411
scalar Floatingscenario.node[0].nic.phy80211p 	busyTime 	0.0014194498166056
scalar Floatingscenario.node[0].nic.mac1609_4 	ReceivedUnicastPackets 	0
scalar Floatingscenario.node[0].nic.mac1609_4 	ReceivedBroadcasts 	516
scalar Floatingscenario.node[0].nic.mac1609_4 	SentPackets 	35
scalar Floatingscenario.node[0].nic.mac1609_4 	SNIRLostPackets 	601
scalar Floatingscenario.node[0].nic.mac1609_4 	RXTXLostPackets 	29
scalar Floatingscenario.node[0].nic.mac1609_4 	TotalLostPackets 	630
scalar Floatingscenario.node[0].nic.mac1609_4 	DroppedPacketsInMac 	0
scalar Floatingscenario.node[0].nic.mac1609_4 	TooLittleTime 	0
scalar Floatingscenario.node[0].nic.mac1609_4 	TimesIntoBackoff 	63
scalar Floatingscenario.node[0].nic.mac1609_4 	SlotsBackoff 	226
scalar Floatingscenario.node[0].nic.mac1609_4 	NumInternalContention 	0
scalar Floatingscenario.node[0].nic.mac1609_4 	totalBusyTime 	0.295096941216
scalar Floatingscenario.node[0].mobility 	startTime 	0.1
scalar Floatingscenario.node[0].mobility 	totalTime 	299.8
scalar Floatingscenario.node[0].mobility 	stopTime 	300
scalar Floatingscenario.node[0].mobility 	minSpeed 	0
scalar Floatingscenario.node[0].mobility 	maxSpeed 	27.779896241473
scalar Floatingscenario.node[0].mobility 	totalDistance 	1811.4647211054
scalar Floatingscenario.node[0].mobility 	totalCO2Emission 	683.37951180662
scalar Floatingscenario.node[1].nic.phy80211p 	busyTime 	0.00017476413516226
scalar Floatingscenario.node[1].nic.mac1609_4 	ReceivedUnicastPackets 	0
scalar Floatingscenario.node[1].nic.mac1609_4 	ReceivedBroadcasts 	132
scalar Floatingscenario.node[1].nic.mac1609_4 	SentPackets 	17
scalar Floatingscenario.node[1].nic.mac1609_4 	SNIRLostPackets 	9
scalar Floatingscenario.node[1].nic.mac1609_4 	RXTXLostPackets 	0
scalar Floatingscenario.node[1].nic.mac1609_4 	TotalLostPackets 	9
scalar Floatingscenario.node[1].nic.mac1609_4 	DroppedPacketsInMac 	0
scalar Floatingscenario.node[1].nic.mac1609_4 	TooLittleTime 	0
scalar Floatingscenario.node[1].nic.mac1609_4 	TimesIntoBackoff 	24
scalar Floatingscenario.node[1].nic.mac1609_4 	SlotsBackoff 	101
scalar Floatingscenario.node[1].nic.mac1609_4 	NumInternalContention 	0
scalar Floatingscenario.node[1].nic.mac1609_4 	totalBusyTime 	0.057367258552
scalar Floatingscenario.node[1].mobility 	startTime 	1.1
scalar Floatingscenario.node[1].mobility 	totalTime 	298.8
scalar Floatingscenario.node[1].mobility 	stopTime 	300
scalar Floatingscenario.node[1].mobility 	minSpeed 	0
scalar Floatingscenario.node[1].mobility 	maxSpeed 	27.779942976178
scalar Floatingscenario.node[1].mobility 	totalDistance 	1761.6645468451
scalar Floatingscenario.node[1].mobility 	totalCO2Emission 	751.26631994155
scalar Floatingscenario.node[100].nic.phy80211p 	busyTime 	0.0030816208104052
scalar Floatingscenario.node[100].nic.mac1609_4 	ReceivedUnicastPackets 	0
scalar Floatingscenario.node[100].nic.mac1609_4 	ReceivedBroadcasts 	484
scalar Floatingscenario.node[100].nic.mac1609_4 	SentPackets 	19
scalar Floatingscenario.node[100].nic.mac1609_4 	SNIRLostPackets 	1132
scalar Floatingscenario.node[100].nic.mac1609_4 	RXTXLostPackets 	20
scalar Floatingscenario.node[100].nic.mac1609_4 	TotalLostPackets 	1152
scalar Floatingscenario.node[100].nic.mac1609_4 	DroppedPacketsInMac 	0
scalar Floatingscenario.node[100].nic.mac1609_4 	TooLittleTime 	0
scalar Floatingscenario.node[100].nic.mac1609_4 	TimesIntoBackoff 	32
scalar Floatingscenario.node[100].nic.mac1609_4 	SlotsBackoff 	111
scalar Floatingscenario.node[100].nic.mac1609_4 	NumInternalContention 	0
scalar Floatingscenario.node[100].nic.mac1609_4 	totalBusyTime 	0.316068812101
scalar Floatingscenario.node[100].mobility 	startTime 	100.1
scalar Floatingscenario.node[100].mobility 	totalTime 	199.8
scalar Floatingscenario.node[100].mobility 	stopTime 	300
scalar Floatingscenario.node[100].mobility 	minSpeed 	5.8541343818083e-14
scalar Floatingscenario.node[100].mobility 	maxSpeed 	22.216953487792
scalar Floatingscenario.node[100].mobility 	totalDistance 	850.40162429182
scalar Floatingscenario.node[100].mobility 	totalCO2Emission 	457.64669103285
scalar Floatingscenario.node[101].nic.phy80211p 	busyTime 	0.0014898642533937
scalar Floatingscenario.node[101].nic.mac1609_4 	ReceivedUnicastPackets 	0
scalar Floatingscenario.node[101].nic.mac1609_4 	ReceivedBroadcasts 	416
scalar Floatingscenario.node[101].nic.mac1609_4 	SentPackets 	0
scalar Floatingscenario.node[101].nic.mac1609_4 	SNIRLostPackets 	366
scalar Floatingscenario.node[101].nic.mac1609_4 	RXTXLostPackets 	0
scalar Floatingscenario.node[101].nic.mac1609_4 	TotalLostPackets 	366
scalar Floatingscenario.node[101].nic.mac1609_4 	DroppedPacketsInMac 	0
scalar Floatingscenario.node[101].nic.mac1609_4 	TooLittleTime 	0
scalar Floatingscenario.node[101].nic.mac1609_4 	TimesIntoBackoff 	0
scalar Floatingscenario.node[101].nic.mac1609_4 	SlotsBackoff 	0
scalar Floatingscenario.node[101].nic.mac1609_4 	NumInternalContention 	0
scalar Floatingscenario.node[101].nic.mac1609_4 	totalBusyTime 	0.211170725606
scalar Floatingscenario.node[101].mobility 	startTime 	101.1
scalar Floatingscenario.node[101].mobility 	totalTime 	198.8
scalar Floatingscenario.node[101].mobility 	stopTime 	300
scalar Floatingscenario.node[101].mobility 	minSpeed 	3.1537881180936e-14
scalar Floatingscenario.node[101].mobility 	maxSpeed 	27.165965730198
scalar Floatingscenario.node[101].mobility 	totalDistance 	910.70542826805
scalar Floatingscenario.node[101].mobility 	totalCO2Emission 	505.3237315113
scalar Floatingscenario.node[102].nic.phy80211p 	busyTime 	0.0010778120262759
scalar Floatingscenario.node[102].nic.mac1609_4 	ReceivedUnicastPackets 	0
scalar Floatingscenario.node[102].nic.mac1609_4 	ReceivedBroadcasts 	330
scalar Floatingscenario.node[102].nic.mac1609_4 	SentPackets 	0
scalar Floatingscenario.node[102].nic.mac1609_4 	SNIRLostPackets 	233
scalar Floatingscenario.node[102].nic.mac1609_4 	RXTXLostPackets 	0
scalar Floatingscenario.node[102].nic.mac1609_4 	TotalLostPackets 	233
scalar Floatingscenario.node[102].nic.mac1609_4 	DroppedPacketsInMac 	0
scalar Floatingscenario.node[102].nic.mac1609_4 	TooLittleTime 	0
scalar Floatingscenario.node[102].nic.mac1609_4 	TimesIntoBackoff 	0
scalar Floatingscenario.node[102].nic.mac1609_4 	SlotsBackoff 	0
scalar Floatingscenario.node[102].nic.mac1609_4 	NumInternalContention 	0
scalar Floatingscenario.node[102].nic.mac1609_4 	totalBusyTime 	0.161831821993
scalar Floatingscenario.node[102].mobility 	startTime 	102.1
scalar Floatingscenario.node[102].mobility 	totalTime 	197.8
scalar Floatingscenario.node[102].mobility 	stopTime 	300
scalar Floatingscenario.node[102].mobility 	minSpeed 	2.3082111989953e-13
scalar Floatingscenario.node[102].mobility 	maxSpeed 	22.407172836526
scalar Floatingscenario.node[102].mobility 	totalDistance 	1124.6313003489
scalar Floatingscenario.node[102].mobility 	totalCO2Emission 	363.41636343402
scalar Floatingscenario.node[103].nic.phy80211p 	busyTime 	0.003256968004063
scalar Floatingscenario.node[103].nic.mac1609_4 	ReceivedUnicastPackets 	0
scalar Floatingscenario.node[103].nic.mac1609_4 	ReceivedBroadcasts 	463
scalar Floatingscenario.node[103].nic.mac1609_4 	SentPackets 	0
scalar Floatingscenario.node[103].nic.mac1609_4 	SNIRLostPackets 	1218
scalar Floatingscenario.node[103].nic.mac1609_4 	RXTXLostPackets 	0
scalar Floatingscenario.node[103].nic.mac1609_4 	TotalLostPackets 	1218
scalar Floatingscenario.node[103].nic.mac1609_4 	DroppedPacketsInMac 	0
scalar Floatingscenario.node[103].nic.mac1609_4 	TooLittleTime 	0
scalar Floatingscenario.node[103].nic.mac1609_4 	TimesIntoBackoff 	0
scalar Floatingscenario.node[103].nic.mac1609_4 	SlotsBackoff 	0
scalar Floatingscenario.node[103].nic.mac1609_4 	NumInternalContention 	0
scalar Floatingscenario.node[103].nic.mac1609_4 	totalBusyTime 	0.323362928727
scalar Floatingscenario.node[103].mobility 	startTime 	103.1
scalar Floatingscenario.node[103].mobility 	totalTime 	196.8
scalar Floatingscenario.node[103].mobility 	stopTime 	300
scalar Floatingscenario.node[103].mobility 	minSpeed 	0
scalar Floatingscenario.node[103].mobility 	maxSpeed 	18.30516559243
scalar Floatingscenario.node[103].mobility 	totalDistance 	772.36367312401
scalar Floatingscenario.node[103].mobility 	totalCO2Emission 	369.23542875373
scalar Floatingscenario.node[104].nic.phy80211p 	busyTime 	0.0018264726901481
scalar Floatingscenario.node[104].nic.mac1609_4 	ReceivedUnicastPackets 	0
scalar Floatingscenario.node[104].nic.mac1609_4 	ReceivedBroadcasts 	503
scalar Floatingscenario.node[104].nic.mac1609_4 	SentPackets 	26
scalar Floatingscenario.node[104].nic.mac1609_4 	SNIRLostPackets 	439
scalar Floatingscenario.node[104].nic.mac1609_4 	RXTXLostPackets 	25
scalar Floatingscenario.node[104].nic.mac1609_4 	TotalLostPackets 	464
scalar Floatingscenario.node[104].nic.mac1609_4 	DroppedPacketsInMac 	0
scalar Floatingscenario.node[104].nic.mac1609_4 	TooLittleTime 	0
scalar Floatingscenario.node[104].nic.mac1609_4 	TimesIntoBackoff 	51
scalar Floatingscenario.node[104].nic.mac1609_4 	SlotsBackoff 	176
scalar Floatingscenario.node[104].nic.mac1609_4 	NumInternalContention 	0
scalar Floatingscenario.node[104].nic.mac1609_4 	totalBusyTime 	0.257873821755
scalar Floatingscenario.node[104].mobility 	startTime 	104.1
scalar Floatingscenario.node[104].mobility 	totalTime 	195.8
scalar Floatingscenario.node[104].mobility 	stopTime 	300
scalar Floatingscenario.node[104].mobility 	minSpeed 	3.1544697511929e-14
scalar Floatingscenario.node[104].mobility 	maxSpeed 	27.772126644505
scalar Floatingscenario.node[104].mobility 	totalDistance 	1094.5754868813
scalar Floatingscenario.node[104].mobility 	totalCO2Emission 	515.61594747543
scalar Floatingscenario.node[105].nic.phy80211p 	busyTime 	0.0032232272960493
scalar Floatingscenario.node[105].nic.mac1609_4 	ReceivedUnicastPackets 	0
scalar Floatingscenario.node[105].nic.mac1609_4 	ReceivedBroadcasts 	487
scalar Floatingscenario.node[105].nic.mac1609_4 	SentPackets 	0
scalar Floatingscenario.node[105].nic.mac1609_4 	SNIRLostPackets 	1160
scalar Floatingscenario.node[105].nic.mac1609_4 	RXTXLostPackets 	0
scalar Floatingscenario.node[105].nic.mac1609_4 	TotalLostPackets 	1160
scalar Floatingscenario.node[105].nic.mac1609_4 	DroppedPacketsInMac 	0
scalar Floatingscenario.node[105].nic.mac1609_4 	TooLittleTime 	0
scalar Floatingscenario.node[105].nic.mac1609_4 	TimesIntoBackoff 	0
scalar Floatingscenario.node[105].nic.mac1609_4 	SlotsBackoff 	0
scalar Floatingscenario.node[105].nic.mac1609_4 	NumInternalContention 	0
scalar Floatingscenario.node[105].nic.mac1609_4 	totalBusyTime 	0.313981723995
scalar Floatingscenario.node[105].mobility 	startTime 	105.1
scalar Floatingscenario.node[105].mobility 	totalTime 	194.8
scalar Floatingscenario.node[105].mobility 	stopTime 	300
scalar Floatingscenario.node[105].mobility 	minSpeed 	5.8537384807791e-14
scalar Floatingscenario.node[105].mobility 	maxSpeed 	18.779918966927
scalar Floatingscenario.node[105].mobility 	totalDistance 	815.6473692575
scalar Floatingscenario.node[105].mobility 	totalCO2Emission 	418.54768301708
scalar Floatingscenario.node[106].nic.phy80211p 	busyTime 	0.0023681588447654
scalar Floatingscenario.node[106].nic.mac1609_4 	ReceivedUnicastPackets 	0
scalar Floatingscenario.node[106].nic.mac1609_4 	ReceivedBroadcasts 	319
scalar Floatingscenario.node[106].nic.mac1609_4 	SentPackets 	13
scalar Floatingscenario.node[106].nic.mac1609_4 	SNIRLostPackets 	883
scalar Floatingscenario.node[106].nic.mac1609_4 	RXTXLostPackets 	35
scalar Floatingscenario.node[106].nic.mac1609_4 	TotalLostPackets 	918
scalar Floatingscenario.node[106].nic.mac1609_4 	DroppedPacketsInMac 	0
scalar Floatingscenario.node[106].nic.mac1609_4 	TooLittleTime 	0
scalar Floatingscenario.node[106].nic.mac1609_4 	TimesIntoBackoff 	22
scalar Floatingscenario.node[106].nic.mac1609_4 	SlotsBackoff 	83
scalar Floatingscenario.node[106].nic.mac1609_4 	NumInternalContention 	0
scalar Floatingscenario.node[106].nic.mac1609_4 	totalBusyTime 	0.225235645138
scalar Floatingscenario.node[106].mobility 	startTime 	106.1
scalar Floatingscenario.node[106].mobility 	totalTime 	193.8
scalar Floatingscenario.node[106].mobility 	stopTime 	300
scalar Floatingscenario.node[106].mobility 	minSpeed 	3.1538909569525e-14
scalar Floatingscenario.node[106].mobility 	maxSpeed 	22.219917753595
scalar Floatingscenario.node[106].mobility 	totalDistance 	1698.6321015941
scalar Floatingscenario.node[106].mobility 	totalCO2Emission 	501.81250074664
scalar Floatingscenario.node[107].nic.phy80211p 	busyTime 	0.0026618662519441
scalar Floatingscenario.node[107].nic.mac1609_4 	ReceivedUnicastPackets 	0
scalar Floatingscenario.node[107].nic.mac1609_4 	ReceivedBroadcasts 	347
scalar Floatingscenario.node[107].nic.mac1609_4 	SentPackets 	16
scalar Floatingscenario.node[107].nic.mac1609_4 	SNIRLostPackets 	999
scalar Floatingscenario.node[107].nic.mac1609_4 	RXTXLostPackets 	5
scalar Floatingscenario.node[107].nic.mac1609_4 	TotalLostPackets 	1004
scalar Floatingscenario.node[107].nic.mac1609_4 	DroppedPacketsInMac 	0
scalar Floatingscenario.node[107].nic.mac1609_4 	TooLittleTime 	0
scalar Floatingscenario.node[107].nic.mac1609_4 	TimesIntoBackoff 	24
scalar Floatingscenario.node[107].nic.mac1609_4 	SlotsBackoff 	89
scalar Floatingscenario.node[107].nic.mac1609_4 	NumInternalContention 	0
scalar Floatingscenario.node[107].nic.mac1609_4 	totalBusyTime 	0.249603558713
scalar Floatingscenario.node[107].mobility 	startTime 	107.1
scalar Floatingscenario.node[107].mobility 	totalTime 	192.8
scalar Floatingscenario.node[107].mobility 	stopTime 	300
scalar Floatingscenario.node[107].mobility 	minSpeed 	5.8592349250529e-14
scalar Floatingscenario.node[107].mobility 	maxSpeed 	22.219522639513
scalar Floatingscenario.node[107].mobility 	totalDistance 	1739.293215518
scalar Floatingscenario.node[107].mobility 	totalCO2Emission 	521.28897735086
scalar Floatingscenario.node[108].nic.phy80211p 	busyTime 	0.0030903699843669
scalar Floatingscenario.node[108].nic.mac1609_4 	ReceivedUnicastPackets 	0
scalar Floatingscenario.node[108].nic.mac1609_4 	ReceivedBroadcasts 	400
scalar Floatingscenario.node[108].nic.mac1609_4 	SentPackets 	4
scalar Floatingscenario.node[108].nic.mac1609_4 	SNIRLostPackets 	1154
scalar Floatingscenario.node[108].nic.mac1609_4 	RXTXLostPackets 	0
scalar Floatingscenario.node[108].nic.mac1609_4 	TotalLostPackets 	1154
scalar Floatingscenario.node[108].nic.mac1609_4 	DroppedPacketsInMac 	0
scalar Floatingscenario.node[108].nic.mac1609_4 	TooLittleTime 	0
scalar Floatingscenario.node[108].nic.mac1609_4 	TimesIntoBackoff 	4
scalar Floatingscenario.node[108].nic.mac1609_4 	SlotsBackoff 	12
scalar Floatingscenario.node[108].nic.mac1609_4 	NumInternalContention 	0
scalar Floatingscenario.node[108].nic.mac1609_4 	totalBusyTime 	0.288764089722
scalar Floatingscenario.node[108].mobility 	startTime 	108.1
scalar Floatingscenario.node[108].mobility 	totalTime 	191.8
scalar Floatingscenario.node[108].mobility 	stopTime 	300
scalar Floatingscenario.node[108].mobility 	minSpeed 	7.9120302411756e-15
scalar Floatingscenario.node[108].mobility 	maxSpeed 	22.219061508568
scalar Floatingscenario.node[108].mobility 	totalDistance 	860.35506399008
scalar Floatingscenario.node[108].mobility 	totalCO2Emission 	381.25655569929
scalar Floatingscenario.node[109].nic.phy80211p 	busyTime 	0.00016270822420115
scalar Floatingscenario.node[109].nic.mac1609_4 	ReceivedUnicastPackets 	0
scalar Floatingscenario.node[109].nic.mac1609_4 	ReceivedBroadcasts 	79
scalar Floatingscenario.node[109].nic.mac1609_4 	SentPackets 	3
scalar Floatingscenario.node[109].nic.mac1609_4 	SNIRLostPackets 	6
scalar Floatingscenario.node[109].nic.mac1609_4 	RXTXLostPackets 	0
scalar Floatingscenario.node[109].nic.mac1609_4 	TotalLostPackets 	6
scalar Floatingscenario.node[109].nic.mac1609_4 	DroppedPacketsInMac 	0
scalar Floatingscenario.node[109].nic.mac1609_4 	TooLittleTime 	0
scalar Floatingscenario.node[109].nic.mac1609_4 	TimesIntoBackoff 	3
scalar Floatingscenario.node[109].nic.mac1609_4 	SlotsBackoff 	10
scalar Floatingscenario.node[109].nic.mac1609_4 	NumInternalContention 	0
scalar Floatingscenario.node[109].nic.mac1609_4 	totalBusyTime 	0.031269443739
scalar Floatingscenario.node[109].mobility 	startTime 	109.1
scalar Floatingscenario.node[109].mobility 	totalTime 	190.8
scalar Floatingscenario.node[109].mobility 	stopTime 	300
scalar Floatingscenario.node[109].mobility 	minSpeed 	5.8543896685726e-14
scalar Floatingscenario.node[109].mobility 	maxSpeed 	27.779907406515
scalar Floatingscenario.node[109].mobility 	totalDistance 	869.66189572575
scalar Floatingscenario.node[109].mobility 	totalCO2Emission 	455.0326101052
scalar Floatingscenario.node[11].nic.phy80211p 	busyTime 	0.0020310003461406
scalar Floatingscenario.node[11].nic.mac1609_4 	ReceivedUnicastPackets 	0
scalar Floatingscenario.node[11].nic.mac1609_4 	ReceivedBroadcasts 	560
scalar Floatingscenario.node[11].nic.mac1609_4 	SentPackets 	48
scalar Floatingscenario.node[11].nic.mac1609_4 	SNIRLostPackets 	980
scalar Floatingscenario.node[11].nic.mac1609_4 	RXTXLostPackets 	111
scalar Floatingscenario.node[11].nic.mac1609_4 	TotalLostPackets 	1091
scalar Floatingscenario.node[11].nic.mac1609_4 	DroppedPacketsInMac 	0
scalar Floatingscenario.node[11].nic.mac1609_4 	TooLittleTime 	0
scalar Floatingscenario.node[11].nic.mac1609_4 	TimesIntoBackoff 	89
scalar Floatingscenario.node[11].nic.mac1609_4 	SlotsBackoff 	317
scalar Floatingscenario.node[11].nic.mac1609_4 	NumInternalContention 	0
scalar Floatingscenario.node[11].nic.mac1609_4 	totalBusyTime 	0.338893610859
scalar Floatingscenario.node[11].mobility 	startTime 	11.1
scalar Floatingscenario.node[11].mobility 	totalTime 	288.8
scalar Floatingscenario.node[11].mobility 	stopTime 	300
scalar Floatingscenario.node[11].mobility 	minSpeed 	5.8541388420277e-14
scalar Floatingscenario.node[11].mobility 	maxSpeed 	26.171706335485
scalar Floatingscenario.node[11].mobility 	totalDistance 	1275.5202657787
scalar Floatingscenario.node[11].mobility 	totalCO2Emission 	698.92980847608
scalar Floatingscenario.node[110].nic.phy80211p 	busyTime 	0.0034385255397578
scalar Floatingscenario.node[110].nic.mac1609_4 	ReceivedUnicastPackets 	0
scalar Floatingscenario.node[110].nic.mac1609_4 	ReceivedBroadcasts 	475
scalar Floatingscenario.node[110].nic.mac1609_4 	SentPackets 	0
scalar Floatingscenario.node[110].nic.mac1609_4 	SNIRLostPackets 	1237
scalar Floatingscenario.node[110].nic.mac1609_4 	RXTXLostPackets 	0
scalar Floatingscenario.node[110].nic.mac1609_4 	TotalLostPackets 	1237
scalar Floatingscenario.node[110].nic.mac1609_4 	DroppedPacketsInMac 	0
scalar Floatingscenario.node[110].nic.mac1609_4 	TooLittleTime 	0
scalar Floatingscenario.node[110].nic.mac1609_4 	TimesIntoBackoff 	0
scalar Floatingscenario.node[110].nic.mac1609_4 	SlotsBackoff 	0
scalar Floatingscenario.node[110].nic.mac1609_4 	NumInternalContention 	0
scalar Floatingscenario.node[110].nic.mac1609_4 	totalBusyTime 	0.325734552849
scalar Floatingscenario.node[110].mobility 	startTime 	110.1
scalar Floatingscenario.node[110].mobility 	totalTime 	189.8
scalar Floatingscenario.node[110].mobility 	stopTime 	300
scalar Floatingscenario.node[110].mobility 	minSpeed 	1.4664353939914e-14
scalar Floatingscenario.node[110].mobility 	maxSpeed 	20.511619170249
scalar Floatingscenario.node[110].mobility 	totalDistance 	611.88466476041
scalar Floatingscenario.node[110].mobility 	totalCO2Emission 	339.26177135732
scalar Floatingscenario.node[111].nic.phy80211p 	busyTime 	0.0015429168872419
scalar Floatingscenario.node[111].nic.mac1609_4 	ReceivedUnicastPackets 	0
scalar Floatingscenario.node[111].nic.mac1609_4 	ReceivedBroadcasts 	456
scalar Floatingscenario.node[111].nic.mac1609_4 	SentPackets 	24
scalar Floatingscenario.node[111].nic.mac1609_4 	SNIRLostPackets 	313
scalar Floatingscenario.node[111].nic.mac1609_4 	RXTXLostPackets 	25
scalar Floatingscenario.node[111].nic.mac1609_4 	TotalLostPackets 	338
scalar Floatingscenario.node[111].nic.mac1609_4 	DroppedPacketsInMac 	0
scalar Floatingscenario.node[111].nic.mac1609_4 	TooLittleTime 	0
scalar Floatingscenario.node[111].nic.mac1609_4 	TimesIntoBackoff 	41
scalar Floatingscenario.node[111].nic.mac1609_4 	SlotsBackoff 	127
scalar Floatingscenario.node[111].nic.mac1609_4 	NumInternalContention 	0
scalar Floatingscenario.node[111].nic.mac1609_4 	totalBusyTime 	0.224177385855
scalar Floatingscenario.node[111].mobility 	startTime 	111.1
scalar Floatingscenario.node[111].mobility 	totalTime 	188.8
scalar Floatingscenario.node[111].mobility 	stopTime 	300
scalar Floatingscenario.node[111].mobility 	minSpeed 	5.8544544657797e-14
scalar Floatingscenario.node[111].mobility 	maxSpeed 	26.758515710184
scalar Floatingscenario.node[111].mobility 	totalDistance 	766.0254716465
scalar Floatingscenario.node[111].mobility 	totalCO2Emission 	470.14020925034
scalar Floatingscenario.node[113].nic.phy80211p 	busyTime 	0.0027583092562869
scalar Floatingscenario.node[113].nic.mac1609_4 	ReceivedUnicastPackets 	0
scalar Floatingscenario.node[113].nic.mac1609_4 	ReceivedBroadcasts 	349
scalar Floatingscenario.node[113].nic.mac1609_4 	SentPackets 	34
scalar Floatingscenario.node[113].nic.mac1609_4 	SNIRLostPackets 	1003
scalar Floatingscenario.node[113].nic.mac1609_4 	RXTXLostPackets 	90
scalar Floatingscenario.node[113].nic.mac1609_4 	TotalLostPackets 	1093
scalar Floatingscenario.node[113].nic.mac1609_4 	DroppedPacketsInMac 	0
scalar Floatingscenario.node[113].nic.mac1609_4 	TooLittleTime 	0
scalar Floatingscenario.node[113].nic.mac1609_4 	TimesIntoBackoff 	57
scalar Floatingscenario.node[113].nic.mac1609_4 	SlotsBackoff 	234
scalar Floatingscenario.node[113].nic.mac1609_4 	NumInternalContention 	0
scalar Floatingscenario.node[113].nic.mac1609_4 	totalBusyTime 	0.266478713405
scalar Floatingscenario.node[113].mobility 	startTime 	113.1
scalar Floatingscenario.node[113].mobility 	totalTime 	186.8
scalar Floatingscenario.node[113].mobility 	stopTime 	300
scalar Floatingscenario.node[113].mobility 	minSpeed 	5.8537712209038e-14
scalar Floatingscenario.node[113].mobility 	maxSpeed 	22.21923652831
scalar Floatingscenario.node[113].mobility 	totalDistance 	1654.1987041458
scalar Floatingscenario.node[113].mobility 	totalCO2Emission 	498.71727592944
scalar Floatingscenario.node[114].nic.phy80211p 	busyTime 	0.0012191823561054
scalar Floatingscenario.node[114].nic.mac1609_4 	ReceivedUnicastPackets 	0
scalar Floatingscenario.node[114].nic.mac1609_4 	ReceivedBroadcasts 	343
scalar Floatingscenario.node[114].nic.mac1609_4 	SentPackets 	0
scalar Floatingscenario.node[114].nic.mac1609_4 	SNIRLostPackets 	255
scalar Floatingscenario.node[114].nic.mac1609_4 	RXTXLostPackets 	0
scalar Floatingscenario.node[114].nic.mac1609_4 	TotalLostPackets 	255
scalar Floatingscenario.node[114].nic.mac1609_4 	DroppedPacketsInMac 	0
scalar Floatingscenario.node[114].nic.mac1609_4 	TooLittleTime 	0
scalar Floatingscenario.node[114].nic.mac1609_4 	TimesIntoBackoff 	0
scalar Floatingscenario.node[114].nic.mac1609_4 	SlotsBackoff 	0
scalar Floatingscenario.node[114].nic.mac1609_4 	NumInternalContention 	0
scalar Floatingscenario.node[114].nic.mac1609_4 	totalBusyTime 	0.169941307683
scalar Floatingscenario.node[114].mobility 	startTime 	114.1
scalar Floatingscenario.node[114].mobility 	totalTime 	185.8
scalar Floatingscenario.node[114].mobility 	stopTime 	300
scalar Floatingscenario.node[114].mobility 	minSpeed 	5.8554838524567e-14
scalar Floatingscenario.node[114].mobility 	maxSpeed 	23.075818008546
scalar Floatingscenario.node[114].mobility 	totalDistance 	895.46311422735
scalar Floatingscenario.node[114].mobility 	totalCO2Emission 	376.35099786106
scalar Floatingscenario.node[115].nic.phy80211p 	busyTime 	0.0018344835045971
scalar Floatingscenario.node[115].nic.mac1609_4 	ReceivedUnicastPackets 	0
scalar Floatingscenario.node[115].nic.mac1609_4 	ReceivedBroadcasts 	453
scalar Floatingscenario.node[115].nic.mac1609_4 	SentPackets 	0
scalar Floatingscenario.node[115].nic.mac1609_4 	SNIRLostPackets 	439
scalar Floatingscenario.node[115].nic.mac1609_4 	RXTXLostPackets 	0
scalar Floatingscenario.node[115].nic.mac1609_4 	TotalLostPackets 	439
scalar Floatingscenario.node[115].nic.mac1609_4 	DroppedPacketsInMac 	0
scalar Floatingscenario.node[115].nic.mac1609_4 	TooLittleTime 	0
scalar Floatingscenario.node[115].nic.mac1609_4 	TimesIntoBackoff 	0
scalar Floatingscenario.node[115].nic.mac1609_4 	SlotsBackoff 	0
scalar Floatingscenario.node[115].nic.mac1609_4 	NumInternalContention 	0
scalar Floatingscenario.node[115].nic.mac1609_4 	totalBusyTime 	0.231563253385
scalar Floatingscenario.node[115].mobility 	startTime 	115.1
scalar Floatingscenario.node[115].mobility 	totalTime 	184.8
scalar Floatingscenario.node[115].mobility 	stopTime 	300
scalar Floatingscenario.node[115].mobility 	minSpeed 	3.1473292818431e-08
scalar Floatingscenario.node[115].mobility 	maxSpeed 	27.779551559573
scalar Floatingscenario.node[115].mobility 	totalDistance 	1910.6403050196
scalar Floatingscenario.node[115].mobility 	totalCO2Emission 	579.46079624596
scalar Floatingscenario.node[116].nic.phy80211p 	busyTime 	0.0011814953779228
scalar Floatingscenario.node[116].nic.mac1609_4 	ReceivedUnicastPackets 	0
scalar Floatingscenario.node[116].nic.mac1609_4 	ReceivedBroadcasts 	296
scalar Floatingscenario.node[116].nic.mac1609_4 	SentPackets 	4
scalar Floatingscenario.node[116].nic.mac1609_4 	SNIRLostPackets 	277
scalar Floatingscenario.node[116].nic.mac1609_4 	RXTXLostPackets 	4
scalar Floatingscenario.node[116].nic.mac1609_4 	TotalLostPackets 	281
scalar Floatingscenario.node[116].nic.mac1609_4 	DroppedPacketsInMac 	0
scalar Floatingscenario.node[116].nic.mac1609_4 	TooLittleTime 	0
scalar Floatingscenario.node[116].nic.mac1609_4 	TimesIntoBackoff 	7
scalar Floatingscenario.node[116].nic.mac1609_4 	SlotsBackoff 	16
scalar Floatingscenario.node[116].nic.mac1609_4 	NumInternalContention 	0
scalar Floatingscenario.node[116].nic.mac1609_4 	totalBusyTime 	0.152390573541
scalar Floatingscenario.node[116].mobility 	startTime 	116.1
scalar Floatingscenario.node[116].mobility 	totalTime 	183.8
scalar Floatingscenario.node[116].mobility 	stopTime 	300
scalar Floatingscenario.node[116].mobility 	minSpeed 	0
scalar Floatingscenario.node[116].mobility 	maxSpeed 	27.779659143155
scalar Floatingscenario.node[116].mobility 	totalDistance 	1299.6729596558
scalar Floatingscenario.node[116].mobility 	totalCO2Emission 	496.56376261304
scalar Floatingscenario.node[117].nic.phy80211p 	busyTime 	0.0033497922361947
scalar Floatingscenario.node[117].nic.mac1609_4 	ReceivedUnicastPackets 	0
scalar Floatingscenario.node[117].nic.mac1609_4 	ReceivedBroadcasts 	422
scalar Floatingscenario.node[117].nic.mac1609_4 	SentPackets 	0
scalar Floatingscenario.node[117].nic.mac1609_4 	SNIRLostPackets 	1183
scalar Floatingscenario.node[117].nic.mac1609_4 	RXTXLostPackets 	0
scalar Floatingscenario.node[117].nic.mac1609_4 	TotalLostPackets 	1183
scalar Floatingscenario.node[117].nic.mac1609_4 	DroppedPacketsInMac 	0
scalar Floatingscenario.node[117].nic.mac1609_4 	TooLittleTime 	0
scalar Floatingscenario.node[117].nic.mac1609_4 	TimesIntoBackoff 	0
scalar Floatingscenario.node[117].nic.mac1609_4 	SlotsBackoff 	0
scalar Floatingscenario.node[117].nic.mac1609_4 	NumInternalContention 	0
scalar Floatingscenario.node[117].nic.mac1609_4 	totalBusyTime 	0.295237053623
scalar Floatingscenario.node[117].mobility 	startTime 	117.1
scalar Floatingscenario.node[117].mobility 	totalTime 	182.8
scalar Floatingscenario.node[117].mobility 	stopTime 	300
scalar Floatingscenario.node[117].mobility 	minSpeed 	3.1538475656582e-14
scalar Floatingscenario.node[117].mobility 	maxSpeed 	22.21992669282
scalar Floatingscenario.node[117].mobility 	totalDistance 	1245.6088467102
scalar Floatingscenario.node[117].mobility 	totalCO2Emission 	394.20424708417
scalar Floatingscenario.node[118].nic.phy80211p 	busyTime 	0.0030796481583288
scalar Floatingscenario.node[118].nic.mac1609_4 	ReceivedUnicastPackets 	0
scalar Floatingscenario.node[118].nic.mac1609_4 	ReceivedBroadcasts 	415
scalar Floatingscenario.node[118].nic.mac1609_4 	SentPackets 	21
scalar Floatingscenario.node[118].nic.mac1609_4 	SNIRLostPackets 	1053
scalar Floatingscenario.node[118].nic.mac1609_4 	RXTXLostPackets 	63
scalar Floatingscenario.node[118].nic.mac1609_4 	TotalLostPackets 	1116
scalar Floatingscenario.node[118].nic.mac1609_4 	DroppedPacketsInMac 	0
scalar Floatingscenario.node[118].nic.mac1609_4 	TooLittleTime 	0
scalar Floatingscenario.node[118].nic.mac1609_4 	TimesIntoBackoff 	38
scalar Floatingscenario.node[118].nic.mac1609_4 	SlotsBackoff 	141
scalar Floatingscenario.node[118].nic.mac1609_4 	NumInternalContention 	0
scalar Floatingscenario.node[118].nic.mac1609_4 	totalBusyTime 	0.289127394548
scalar Floatingscenario.node[118].mobility 	startTime 	118.1
scalar Floatingscenario.node[118].mobility 	totalTime 	181.8
scalar Floatingscenario.node[118].mobility 	stopTime 	300
scalar Floatingscenario.node[118].mobility 	minSpeed 	1.1256486569958e-13
scalar Floatingscenario.node[118].mobility 	maxSpeed 	22.210603719654
scalar Floatingscenario.node[118].mobility 	totalDistance 	787.16663052579
scalar Floatingscenario.node[118].mobility 	totalCO2Emission 	411.89836197087
scalar Floatingscenario.node[173].nic.phy80211p 	busyTime 	0.0050925338645419
scalar Floatingscenario.node[173].nic.mac1609_4 	ReceivedUnicastPackets 	0
scalar Floatingscenario.node[173].nic.mac1609_4 	ReceivedBroadcasts 	467
scalar Floatingscenario.node[173].nic.mac1609_4 	SentPackets 	13
scalar Floatingscenario.node[173].nic.mac1609_4 	SNIRLostPackets 	1206
scalar Floatingscenario.node[173].nic.mac1609_4 	RXTXLostPackets 	3
scalar Floatingscenario.node[173].nic.mac1609_4 	TotalLostPackets 	1209
scalar Floatingscenario.node[173].nic.mac1609_4 	DroppedPacketsInMac 	0
scalar Floatingscenario.node[173].nic.mac1609_4 	TooLittleTime 	0
scalar Floatingscenario.node[173].nic.mac1609_4 	TimesIntoBackoff 	18
scalar Floatingscenario.node[173].nic.mac1609_4 	SlotsBackoff 	82
scalar Floatingscenario.node[173].nic.mac1609_4 	NumInternalContention 	0
scalar Floatingscenario.node[173].nic.mac1609_4 	totalBusyTime 	0.321770883249
scalar Floatingscenario.node[173].mobility 	startTime 	174.5
scalar Floatingscenario.node[173].mobility 	totalTime 	125.4
scalar Floatingscenario.node[173].mobility 	stopTime 	300
scalar Floatingscenario.node[173].mobility 	minSpeed 	5.8547538668808e-14
scalar Floatingscenario.node[173].mobility 	maxSpeed 	14.290471795264
scalar Floatingscenario.node[173].mobility 	totalDistance 	464.89751744931
scalar Floatingscenario.node[173].mobility 	totalCO2Emission 	231.40685079093
scalar Floatingscenario.node[119].nic.phy80211p 	busyTime 	0.0013661200667037
scalar Floatingscenario.node[119].nic.mac1609_4 	ReceivedUnicastPackets 	0
scalar Floatingscenario.node[119].nic.mac1609_4 	ReceivedBroadcasts 	248
scalar Floatingscenario.node[119].nic.mac1609_4 	SentPackets 	7
scalar Floatingscenario.node[119].nic.mac1609_4 	SNIRLostPackets 	397
scalar Floatingscenario.node[119].nic.mac1609_4 	RXTXLostPackets 	4
scalar Floatingscenario.node[119].nic.mac1609_4 	TotalLostPackets 	401
scalar Floatingscenario.node[119].nic.mac1609_4 	DroppedPacketsInMac 	0
scalar Floatingscenario.node[119].nic.mac1609_4 	TooLittleTime 	0
scalar Floatingscenario.node[119].nic.mac1609_4 	TimesIntoBackoff 	11
scalar Floatingscenario.node[119].nic.mac1609_4 	SlotsBackoff 	33
scalar Floatingscenario.node[119].nic.mac1609_4 	NumInternalContention 	0
scalar Floatingscenario.node[119].nic.mac1609_4 	totalBusyTime 	0.158513898935
scalar Floatingscenario.node[119].mobility 	startTime 	120.1
scalar Floatingscenario.node[119].mobility 	totalTime 	179.8
scalar Floatingscenario.node[119].mobility 	stopTime 	300
scalar Floatingscenario.node[119].mobility 	minSpeed 	5.8585688493459e-14
scalar Floatingscenario.node[119].mobility 	maxSpeed 	18.563529942518
scalar Floatingscenario.node[119].mobility 	totalDistance 	1617.6521734098
scalar Floatingscenario.node[119].mobility 	totalCO2Emission 	442.13372081238
scalar Floatingscenario.node[120].nic.phy80211p 	busyTime 	0.0018084963666853
scalar Floatingscenario.node[120].nic.mac1609_4 	ReceivedUnicastPackets 	0
scalar Floatingscenario.node[120].nic.mac1609_4 	ReceivedBroadcasts 	452
scalar Floatingscenario.node[120].nic.mac1609_4 	SentPackets 	17
scalar Floatingscenario.node[120].nic.mac1609_4 	SNIRLostPackets 	400
scalar Floatingscenario.node[120].nic.mac1609_4 	RXTXLostPackets 	5
scalar Floatingscenario.node[120].nic.mac1609_4 	TotalLostPackets 	405
scalar Floatingscenario.node[120].nic.mac1609_4 	DroppedPacketsInMac 	0
scalar Floatingscenario.node[120].nic.mac1609_4 	TooLittleTime 	0
scalar Floatingscenario.node[120].nic.mac1609_4 	TimesIntoBackoff 	26
scalar Floatingscenario.node[120].nic.mac1609_4 	SlotsBackoff 	78
scalar Floatingscenario.node[120].nic.mac1609_4 	NumInternalContention 	0
scalar Floatingscenario.node[120].nic.mac1609_4 	totalBusyTime 	0.230890904483
scalar Floatingscenario.node[120].mobility 	startTime 	121.1
scalar Floatingscenario.node[120].mobility 	totalTime 	178.8
scalar Floatingscenario.node[120].mobility 	stopTime 	300
scalar Floatingscenario.node[120].mobility 	minSpeed 	7.9125034195787e-15
scalar Floatingscenario.node[120].mobility 	maxSpeed 	26.374559795247
scalar Floatingscenario.node[120].mobility 	totalDistance 	986.19422857364
scalar Floatingscenario.node[120].mobility 	totalCO2Emission 	422.13426453301
scalar Floatingscenario.node[121].nic.phy80211p 	busyTime 	0.00017676222596965
scalar Floatingscenario.node[121].nic.mac1609_4 	ReceivedUnicastPackets 	0
scalar Floatingscenario.node[121].nic.mac1609_4 	ReceivedBroadcasts 	80
scalar Floatingscenario.node[121].nic.mac1609_4 	SentPackets 	4
scalar Floatingscenario.node[121].nic.mac1609_4 	SNIRLostPackets 	6
scalar Floatingscenario.node[121].nic.mac1609_4 	RXTXLostPackets 	0
scalar Floatingscenario.node[121].nic.mac1609_4 	TotalLostPackets 	6
scalar Floatingscenario.node[121].nic.mac1609_4 	DroppedPacketsInMac 	0
scalar Floatingscenario.node[121].nic.mac1609_4 	TooLittleTime 	0
scalar Floatingscenario.node[121].nic.mac1609_4 	TimesIntoBackoff 	5
scalar Floatingscenario.node[121].nic.mac1609_4 	SlotsBackoff 	13
scalar Floatingscenario.node[121].nic.mac1609_4 	NumInternalContention 	0
scalar Floatingscenario.node[121].nic.mac1609_4 	totalBusyTime 	0.032040440554
scalar Floatingscenario.node[121].mobility 	startTime 	122.1
scalar Floatingscenario.node[121].mobility 	totalTime 	177.8
scalar Floatingscenario.node[121].mobility 	stopTime 	300
scalar Floatingscenario.node[121].mobility 	minSpeed 	5.8542272850399e-14
scalar Floatingscenario.node[121].mobility 	maxSpeed 	27.77956410202
scalar Floatingscenario.node[121].mobility 	totalDistance 	636.55593844142
scalar Floatingscenario.node[121].mobility 	totalCO2Emission 	406.22949442094
scalar Floatingscenario.node[122].nic.phy80211p 	busyTime 	0.00068413793103448
scalar Floatingscenario.node[122].nic.mac1609_4 	ReceivedUnicastPackets 	0
scalar Floatingscenario.node[122].nic.mac1609_4 	ReceivedBroadcasts 	227
scalar Floatingscenario.node[122].nic.mac1609_4 	SentPackets 	0
scalar Floatingscenario.node[122].nic.mac1609_4 	SNIRLostPackets 	93
scalar Floatingscenario.node[122].nic.mac1609_4 	RXTXLostPackets 	0
scalar Floatingscenario.node[122].nic.mac1609_4 	TotalLostPackets 	93
scalar Floatingscenario.node[122].nic.mac1609_4 	DroppedPacketsInMac 	0
scalar Floatingscenario.node[122].nic.mac1609_4 	TooLittleTime 	0
scalar Floatingscenario.node[122].nic.mac1609_4 	TimesIntoBackoff 	0
scalar Floatingscenario.node[122].nic.mac1609_4 	SlotsBackoff 	0
scalar Floatingscenario.node[122].nic.mac1609_4 	NumInternalContention 	0
scalar Floatingscenario.node[122].nic.mac1609_4 	totalBusyTime 	0.10036412968
scalar Floatingscenario.node[122].mobility 	startTime 	123.1
scalar Floatingscenario.node[122].mobility 	totalTime 	176.8
scalar Floatingscenario.node[122].mobility 	stopTime 	300
scalar Floatingscenario.node[122].mobility 	minSpeed 	7.4026832590345e-14
scalar Floatingscenario.node[122].mobility 	maxSpeed 	22.219592555317
scalar Floatingscenario.node[122].mobility 	totalDistance 	1963.9660876512
scalar Floatingscenario.node[122].mobility 	totalCO2Emission 	599.57408684843
scalar Floatingscenario.node[123].nic.phy80211p 	busyTime 	0.0018838430926663
scalar Floatingscenario.node[123].nic.mac1609_4 	ReceivedUnicastPackets 	0
scalar Floatingscenario.node[123].nic.mac1609_4 	ReceivedBroadcasts 	457
scalar Floatingscenario.node[123].nic.mac1609_4 	SentPackets 	15
scalar Floatingscenario.node[123].nic.mac1609_4 	SNIRLostPackets 	415
scalar Floatingscenario.node[123].nic.mac1609_4 	RXTXLostPackets 	21
scalar Floatingscenario.node[123].nic.mac1609_4 	TotalLostPackets 	436
scalar Floatingscenario.node[123].nic.mac1609_4 	DroppedPacketsInMac 	0
scalar Floatingscenario.node[123].nic.mac1609_4 	TooLittleTime 	0
scalar Floatingscenario.node[123].nic.mac1609_4 	TimesIntoBackoff 	29
scalar Floatingscenario.node[123].nic.mac1609_4 	SlotsBackoff 	107
scalar Floatingscenario.node[123].nic.mac1609_4 	NumInternalContention 	0
scalar Floatingscenario.node[123].nic.mac1609_4 	totalBusyTime 	0.234173759125
scalar Floatingscenario.node[123].mobility 	startTime 	124.1
scalar Floatingscenario.node[123].mobility 	totalTime 	175.8
scalar Floatingscenario.node[123].mobility 	stopTime 	300
scalar Floatingscenario.node[123].mobility 	minSpeed 	1.4689966778914e-14
scalar Floatingscenario.node[123].mobility 	maxSpeed 	27.779291928164
scalar Floatingscenario.node[123].mobility 	totalDistance 	1540.0945776636
scalar Floatingscenario.node[123].mobility 	totalCO2Emission 	552.342734382
scalar Floatingscenario.node[124].nic.phy80211p 	busyTime 	0.0028125328759292
scalar Floatingscenario.node[124].nic.mac1609_4 	ReceivedUnicastPackets 	0
scalar Floatingscenario.node[124].nic.mac1609_4 	ReceivedBroadcasts 	335
scalar Floatingscenario.node[124].nic.mac1609_4 	SentPackets 	1
scalar Floatingscenario.node[124].nic.mac1609_4 	SNIRLostPackets 	953
scalar Floatingscenario.node[124].nic.mac1609_4 	RXTXLostPackets 	0
scalar Floatingscenario.node[124].nic.mac1609_4 	TotalLostPackets 	953
scalar Floatingscenario.node[124].nic.mac1609_4 	DroppedPacketsInMac 	0
scalar Floatingscenario.node[124].nic.mac1609_4 	TooLittleTime 	0
scalar Floatingscenario.node[124].nic.mac1609_4 	TimesIntoBackoff 	1
scalar Floatingscenario.node[124].nic.mac1609_4 	SlotsBackoff 	1
scalar Floatingscenario.node[124].nic.mac1609_4 	NumInternalContention 	0
scalar Floatingscenario.node[124].nic.mac1609_4 	totalBusyTime 	0.23157486241
scalar Floatingscenario.node[124].mobility 	startTime 	125.1
scalar Floatingscenario.node[124].mobility 	totalTime 	174.8
scalar Floatingscenario.node[124].mobility 	stopTime 	300
scalar Floatingscenario.node[124].mobility 	minSpeed 	5.8570209088355e-14
scalar Floatingscenario.node[124].mobility 	maxSpeed 	22.219380862128
scalar Floatingscenario.node[124].mobility 	totalDistance 	1384.237958686
scalar Floatingscenario.node[124].mobility 	totalCO2Emission 	398.82605696439
scalar Floatingscenario.node[125].nic.phy80211p 	busyTime 	0.00012547441058079
scalar Floatingscenario.node[125].nic.mac1609_4 	ReceivedUnicastPackets 	0
scalar Floatingscenario.node[125].nic.mac1609_4 	ReceivedBroadcasts 	56
scalar Floatingscenario.node[125].nic.mac1609_4 	SentPackets 	6
scalar Floatingscenario.node[125].nic.mac1609_4 	SNIRLostPackets 	4
scalar Floatingscenario.node[125].nic.mac1609_4 	RXTXLostPackets 	0
scalar Floatingscenario.node[125].nic.mac1609_4 	TotalLostPackets 	4
scalar Floatingscenario.node[125].nic.mac1609_4 	DroppedPacketsInMac 	0
scalar Floatingscenario.node[125].nic.mac1609_4 	TooLittleTime 	0
scalar Floatingscenario.node[125].nic.mac1609_4 	TimesIntoBackoff 	10
scalar Floatingscenario.node[125].nic.mac1609_4 	SlotsBackoff 	29
scalar Floatingscenario.node[125].nic.mac1609_4 	NumInternalContention 	0
scalar Floatingscenario.node[125].nic.mac1609_4 	totalBusyTime 	0.023337776371
scalar Floatingscenario.node[125].mobility 	startTime 	126.1
scalar Floatingscenario.node[125].mobility 	totalTime 	173.8
scalar Floatingscenario.node[125].mobility 	stopTime 	300
scalar Floatingscenario.node[125].mobility 	minSpeed 	5.8545666759693e-14
scalar Floatingscenario.node[125].mobility 	maxSpeed 	24.184738361986
scalar Floatingscenario.node[125].mobility 	totalDistance 	717.84819410049
scalar Floatingscenario.node[125].mobility 	totalCO2Emission 	420.31269930355
scalar Floatingscenario.node[126].nic.phy80211p 	busyTime 	0.0020835164835165
scalar Floatingscenario.node[126].nic.mac1609_4 	ReceivedUnicastPackets 	0
scalar Floatingscenario.node[126].nic.mac1609_4 	ReceivedBroadcasts 	261
scalar Floatingscenario.node[126].nic.mac1609_4 	SentPackets 	12
scalar Floatingscenario.node[126].nic.mac1609_4 	SNIRLostPackets 	683
scalar Floatingscenario.node[126].nic.mac1609_4 	RXTXLostPackets 	33
scalar Floatingscenario.node[126].nic.mac1609_4 	TotalLostPackets 	716
scalar Floatingscenario.node[126].nic.mac1609_4 	DroppedPacketsInMac 	0
scalar Floatingscenario.node[126].nic.mac1609_4 	TooLittleTime 	0
scalar Floatingscenario.node[126].nic.mac1609_4 	TimesIntoBackoff 	23
scalar Floatingscenario.node[126].nic.mac1609_4 	SlotsBackoff 	82
scalar Floatingscenario.node[126].nic.mac1609_4 	NumInternalContention 	0
scalar Floatingscenario.node[126].nic.mac1609_4 	totalBusyTime 	0.179892140819
scalar Floatingscenario.node[126].mobility 	startTime 	127.1
scalar Floatingscenario.node[126].mobility 	totalTime 	172.8
scalar Floatingscenario.node[126].mobility 	stopTime 	300
scalar Floatingscenario.node[126].mobility 	minSpeed 	3.7780330382425e-12
scalar Floatingscenario.node[126].mobility 	maxSpeed 	22.219735564366
scalar Floatingscenario.node[126].mobility 	totalDistance 	1468.8510620173
scalar Floatingscenario.node[126].mobility 	totalCO2Emission 	462.61208936411
scalar Floatingscenario.node[127].nic.phy80211p 	busyTime 	0.0033117975567191
scalar Floatingscenario.node[127].nic.mac1609_4 	ReceivedUnicastPackets 	0
scalar Floatingscenario.node[127].nic.mac1609_4 	ReceivedBroadcasts 	395
scalar Floatingscenario.node[127].nic.mac1609_4 	SentPackets 	1
scalar Floatingscenario.node[127].nic.mac1609_4 	SNIRLostPackets 	1095
scalar Floatingscenario.node[127].nic.mac1609_4 	RXTXLostPackets 	0
scalar Floatingscenario.node[127].nic.mac1609_4 	TotalLostPackets 	1095
scalar Floatingscenario.node[127].nic.mac1609_4 	DroppedPacketsInMac 	0
scalar Floatingscenario.node[127].nic.mac1609_4 	TooLittleTime 	0
scalar Floatingscenario.node[127].nic.mac1609_4 	TimesIntoBackoff 	1
scalar Floatingscenario.node[127].nic.mac1609_4 	SlotsBackoff 	3
scalar Floatingscenario.node[127].nic.mac1609_4 	NumInternalContention 	0
scalar Floatingscenario.node[127].nic.mac1609_4 	totalBusyTime 	0.274264757257
scalar Floatingscenario.node[127].mobility 	startTime 	128.1
scalar Floatingscenario.node[127].mobility 	totalTime 	171.8
scalar Floatingscenario.node[127].mobility 	stopTime 	300
scalar Floatingscenario.node[127].mobility 	minSpeed 	4.1511079700998e-11
scalar Floatingscenario.node[127].mobility 	maxSpeed 	22.2153304488
scalar Floatingscenario.node[127].mobility 	totalDistance 	1114.4623585108
scalar Floatingscenario.node[127].mobility 	totalCO2Emission 	429.6385830794
scalar Floatingscenario.node[128].nic.phy80211p 	busyTime 	0.0033296840257461
scalar Floatingscenario.node[128].nic.mac1609_4 	ReceivedUnicastPackets 	0
scalar Floatingscenario.node[128].nic.mac1609_4 	ReceivedBroadcasts 	361
scalar Floatingscenario.node[128].nic.mac1609_4 	SentPackets 	1
scalar Floatingscenario.node[128].nic.mac1609_4 	SNIRLostPackets 	1130
scalar Floatingscenario.node[128].nic.mac1609_4 	RXTXLostPackets 	0
scalar Floatingscenario.node[128].nic.mac1609_4 	TotalLostPackets 	1130
scalar Floatingscenario.node[128].nic.mac1609_4 	DroppedPacketsInMac 	0
scalar Floatingscenario.node[128].nic.mac1609_4 	TooLittleTime 	0
scalar Floatingscenario.node[128].nic.mac1609_4 	TimesIntoBackoff 	1
scalar Floatingscenario.node[128].nic.mac1609_4 	SlotsBackoff 	0
scalar Floatingscenario.node[128].nic.mac1609_4 	NumInternalContention 	0
scalar Floatingscenario.node[128].nic.mac1609_4 	totalBusyTime 	0.26985642475
scalar Floatingscenario.node[128].mobility 	startTime 	129.1
scalar Floatingscenario.node[128].mobility 	totalTime 	170.8
scalar Floatingscenario.node[128].mobility 	stopTime 	300
scalar Floatingscenario.node[128].mobility 	minSpeed 	1.1255976377199e-13
scalar Floatingscenario.node[128].mobility 	maxSpeed 	22.219938261032
scalar Floatingscenario.node[128].mobility 	totalDistance 	1500.7574781652
scalar Floatingscenario.node[128].mobility 	totalCO2Emission 	437.43131458787
scalar Floatingscenario.node[129].nic.phy80211p 	busyTime 	0.0032450382577988
scalar Floatingscenario.node[129].nic.mac1609_4 	ReceivedUnicastPackets 	0
scalar Floatingscenario.node[129].nic.mac1609_4 	ReceivedBroadcasts 	393
scalar Floatingscenario.node[129].nic.mac1609_4 	SentPackets 	36
scalar Floatingscenario.node[129].nic.mac1609_4 	SNIRLostPackets 	1051
scalar Floatingscenario.node[129].nic.mac1609_4 	RXTXLostPackets 	51
scalar Floatingscenario.node[129].nic.mac1609_4 	TotalLostPackets 	1102
scalar Floatingscenario.node[129].nic.mac1609_4 	DroppedPacketsInMac 	0
scalar Floatingscenario.node[129].nic.mac1609_4 	TooLittleTime 	0
scalar Floatingscenario.node[129].nic.mac1609_4 	TimesIntoBackoff 	59
scalar Floatingscenario.node[129].nic.mac1609_4 	SlotsBackoff 	176
scalar Floatingscenario.node[129].nic.mac1609_4 	NumInternalContention 	0
scalar Floatingscenario.node[129].nic.mac1609_4 	totalBusyTime 	0.284871049439
scalar Floatingscenario.node[129].mobility 	startTime 	130.1
scalar Floatingscenario.node[129].mobility 	totalTime 	169.8
scalar Floatingscenario.node[129].mobility 	stopTime 	300
scalar Floatingscenario.node[129].mobility 	minSpeed 	5.8545734061819e-14
scalar Floatingscenario.node[129].mobility 	maxSpeed 	17.007864886997
scalar Floatingscenario.node[129].mobility 	totalDistance 	852.31100695796
scalar Floatingscenario.node[129].mobility 	totalCO2Emission 	380.12025897473
scalar Floatingscenario.node[130].nic.phy80211p 	busyTime 	0.0014824629958555
scalar Floatingscenario.node[130].nic.mac1609_4 	ReceivedUnicastPackets 	0
scalar Floatingscenario.node[130].nic.mac1609_4 	ReceivedBroadcasts 	321
scalar Floatingscenario.node[130].nic.mac1609_4 	SentPackets 	28
scalar Floatingscenario.node[130].nic.mac1609_4 	SNIRLostPackets 	339
scalar Floatingscenario.node[130].nic.mac1609_4 	RXTXLostPackets 	1
scalar Floatingscenario.node[130].nic.mac1609_4 	TotalLostPackets 	340
scalar Floatingscenario.node[130].nic.mac1609_4 	DroppedPacketsInMac 	0
scalar Floatingscenario.node[130].nic.mac1609_4 	TooLittleTime 	0
scalar Floatingscenario.node[130].nic.mac1609_4 	TimesIntoBackoff 	47
scalar Floatingscenario.node[130].nic.mac1609_4 	SlotsBackoff 	157
scalar Floatingscenario.node[130].nic.mac1609_4 	NumInternalContention 	0
scalar Floatingscenario.node[130].nic.mac1609_4 	totalBusyTime 	0.180125648863
scalar Floatingscenario.node[130].mobility 	startTime 	131.1
scalar Floatingscenario.node[130].mobility 	totalTime 	168.8
scalar Floatingscenario.node[130].mobility 	stopTime 	300
scalar Floatingscenario.node[130].mobility 	minSpeed 	3.6943836054083e-15
scalar Floatingscenario.node[130].mobility 	maxSpeed 	14.434268231895
scalar Floatingscenario.node[130].mobility 	totalDistance 	524.62977384343
scalar Floatingscenario.node[130].mobility 	totalCO2Emission 	282.03680717879
scalar Floatingscenario.node[131].nic.phy80211p 	busyTime 	0.00097992852888624
scalar Floatingscenario.node[131].nic.mac1609_4 	ReceivedUnicastPackets 	0
scalar Floatingscenario.node[131].nic.mac1609_4 	ReceivedBroadcasts 	224
scalar Floatingscenario.node[131].nic.mac1609_4 	SentPackets 	0
scalar Floatingscenario.node[131].nic.mac1609_4 	SNIRLostPackets 	210
scalar Floatingscenario.node[131].nic.mac1609_4 	RXTXLostPackets 	0
scalar Floatingscenario.node[131].nic.mac1609_4 	TotalLostPackets 	210
scalar Floatingscenario.node[131].nic.mac1609_4 	DroppedPacketsInMac 	0
scalar Floatingscenario.node[131].nic.mac1609_4 	TooLittleTime 	0
scalar Floatingscenario.node[131].nic.mac1609_4 	TimesIntoBackoff 	0
scalar Floatingscenario.node[131].nic.mac1609_4 	SlotsBackoff 	0
scalar Floatingscenario.node[131].nic.mac1609_4 	NumInternalContention 	0
scalar Floatingscenario.node[131].nic.mac1609_4 	totalBusyTime 	0.112896435499
scalar Floatingscenario.node[131].mobility 	startTime 	132.1
scalar Floatingscenario.node[131].mobility 	totalTime 	167.8
scalar Floatingscenario.node[131].mobility 	stopTime 	300
scalar Floatingscenario.node[131].mobility 	minSpeed 	3.6924477857517e-15
scalar Floatingscenario.node[131].mobility 	maxSpeed 	27.779976833218
scalar Floatingscenario.node[131].mobility 	totalDistance 	1077.2525966807
scalar Floatingscenario.node[131].mobility 	totalCO2Emission 	412.94576923605
scalar Floatingscenario.node[132].nic.phy80211p 	busyTime 	0.0036032594367885
scalar Floatingscenario.node[132].nic.mac1609_4 	ReceivedUnicastPackets 	0
scalar Floatingscenario.node[132].nic.mac1609_4 	ReceivedBroadcasts 	515
scalar Floatingscenario.node[132].nic.mac1609_4 	SentPackets 	8
scalar Floatingscenario.node[132].nic.mac1609_4 	SNIRLostPackets 	1061
scalar Floatingscenario.node[132].nic.mac1609_4 	RXTXLostPackets 	9
scalar Floatingscenario.node[132].nic.mac1609_4 	TotalLostPackets 	1070
scalar Floatingscenario.node[132].nic.mac1609_4 	DroppedPacketsInMac 	0
scalar Floatingscenario.node[132].nic.mac1609_4 	TooLittleTime 	0
scalar Floatingscenario.node[132].nic.mac1609_4 	TimesIntoBackoff 	14
scalar Floatingscenario.node[132].nic.mac1609_4 	SlotsBackoff 	60
scalar Floatingscenario.node[132].nic.mac1609_4 	NumInternalContention 	0
scalar Floatingscenario.node[132].nic.mac1609_4 	totalBusyTime 	0.338458561891
scalar Floatingscenario.node[132].mobility 	startTime 	133.1
scalar Floatingscenario.node[132].mobility 	totalTime 	166.8
scalar Floatingscenario.node[132].mobility 	stopTime 	300
scalar Floatingscenario.node[132].mobility 	minSpeed 	1.1262837969263e-13
scalar Floatingscenario.node[132].mobility 	maxSpeed 	27.762865711625
scalar Floatingscenario.node[132].mobility 	totalDistance 	1287.3645363912
scalar Floatingscenario.node[132].mobility 	totalCO2Emission 	523.46112866101
scalar Floatingscenario.node[133].nic.phy80211p 	busyTime 	6.7311633514165e-05
scalar Floatingscenario.node[133].nic.mac1609_4 	ReceivedUnicastPackets 	0
scalar Floatingscenario.node[133].nic.mac1609_4 	ReceivedBroadcasts 	31
scalar Floatingscenario.node[133].nic.mac1609_4 	SentPackets 	6
scalar Floatingscenario.node[133].nic.mac1609_4 	SNIRLostPackets 	0
scalar Floatingscenario.node[133].nic.mac1609_4 	RXTXLostPackets 	0
scalar Floatingscenario.node[133].nic.mac1609_4 	TotalLostPackets 	0
scalar Floatingscenario.node[133].nic.mac1609_4 	DroppedPacketsInMac 	0
scalar Floatingscenario.node[133].nic.mac1609_4 	TooLittleTime 	0
scalar Floatingscenario.node[133].nic.mac1609_4 	TimesIntoBackoff 	7
scalar Floatingscenario.node[133].nic.mac1609_4 	SlotsBackoff 	21
scalar Floatingscenario.node[133].nic.mac1609_4 	NumInternalContention 	0
scalar Floatingscenario.node[133].nic.mac1609_4 	totalBusyTime 	0.013355
scalar Floatingscenario.node[133].mobility 	startTime 	134.1
scalar Floatingscenario.node[133].mobility 	totalTime 	165.8
scalar Floatingscenario.node[133].mobility 	stopTime 	300
scalar Floatingscenario.node[133].mobility 	minSpeed 	0
scalar Floatingscenario.node[133].mobility 	maxSpeed 	18.485403241075
scalar Floatingscenario.node[133].mobility 	totalDistance 	599.42567045214
scalar Floatingscenario.node[133].mobility 	totalCO2Emission 	323.42846701942
scalar Floatingscenario.node[134].nic.phy80211p 	busyTime 	0.0016343784111583
scalar Floatingscenario.node[134].nic.mac1609_4 	ReceivedUnicastPackets 	0
scalar Floatingscenario.node[134].nic.mac1609_4 	ReceivedBroadcasts 	360
scalar Floatingscenario.node[134].nic.mac1609_4 	SentPackets 	0
scalar Floatingscenario.node[134].nic.mac1609_4 	SNIRLostPackets 	349
scalar Floatingscenario.node[134].nic.mac1609_4 	RXTXLostPackets 	0
scalar Floatingscenario.node[134].nic.mac1609_4 	TotalLostPackets 	349
scalar Floatingscenario.node[134].nic.mac1609_4 	DroppedPacketsInMac 	0
scalar Floatingscenario.node[134].nic.mac1609_4 	TooLittleTime 	0
scalar Floatingscenario.node[134].nic.mac1609_4 	TimesIntoBackoff 	0
scalar Floatingscenario.node[134].nic.mac1609_4 	SlotsBackoff 	0
scalar Floatingscenario.node[134].nic.mac1609_4 	NumInternalContention 	0
scalar Floatingscenario.node[134].nic.mac1609_4 	totalBusyTime 	0.185202188461
scalar Floatingscenario.node[134].mobility 	startTime 	135.1
scalar Floatingscenario.node[134].mobility 	totalTime 	164.8
scalar Floatingscenario.node[134].mobility 	stopTime 	300
scalar Floatingscenario.node[134].mobility 	minSpeed 	5.3649746855562e-08
scalar Floatingscenario.node[134].mobility 	maxSpeed 	27.779544839384
scalar Floatingscenario.node[134].mobility 	totalDistance 	1307.5332459767
scalar Floatingscenario.node[134].mobility 	totalCO2Emission 	440.1672242671
scalar Floatingscenario.node[135].nic.phy80211p 	busyTime 	0.0010382916412447
scalar Floatingscenario.node[135].nic.mac1609_4 	ReceivedUnicastPackets 	0
scalar Floatingscenario.node[135].nic.mac1609_4 	ReceivedBroadcasts 	224
scalar Floatingscenario.node[135].nic.mac1609_4 	SentPackets 	17
scalar Floatingscenario.node[135].nic.mac1609_4 	SNIRLostPackets 	224
scalar Floatingscenario.node[135].nic.mac1609_4 	RXTXLostPackets 	1
scalar Floatingscenario.node[135].nic.mac1609_4 	TotalLostPackets 	225
scalar Floatingscenario.node[135].nic.mac1609_4 	DroppedPacketsInMac 	0
scalar Floatingscenario.node[135].nic.mac1609_4 	TooLittleTime 	0
scalar Floatingscenario.node[135].nic.mac1609_4 	TimesIntoBackoff 	24
scalar Floatingscenario.node[135].nic.mac1609_4 	SlotsBackoff 	72
scalar Floatingscenario.node[135].nic.mac1609_4 	NumInternalContention 	0
scalar Floatingscenario.node[135].nic.mac1609_4 	totalBusyTime 	0.125077521846
scalar Floatingscenario.node[135].mobility 	startTime 	136.1
scalar Floatingscenario.node[135].mobility 	totalTime 	163.8
scalar Floatingscenario.node[135].mobility 	stopTime 	300
scalar Floatingscenario.node[135].mobility 	minSpeed 	1.1486639397983e-12
scalar Floatingscenario.node[135].mobility 	maxSpeed 	22.218769903635
scalar Floatingscenario.node[135].mobility 	totalDistance 	1642.0482813314
scalar Floatingscenario.node[135].mobility 	totalCO2Emission 	445.68904228094
scalar Floatingscenario.node[136].nic.phy80211p 	busyTime 	0.0024162492326581
scalar Floatingscenario.node[136].nic.mac1609_4 	ReceivedUnicastPackets 	0
scalar Floatingscenario.node[136].nic.mac1609_4 	ReceivedBroadcasts 	280
scalar Floatingscenario.node[136].nic.mac1609_4 	SentPackets 	3
[...]
scalar Floatingscenario.manager.anchorZone[278] 	timeAverage 	52.081081081081
scalar Floatingscenario.manager.anchorZone[278] 	avgContacts 	0.24324324324324
scalar Floatingscenario.manager.anchorZone[278] 	contactTime 	0
scalar Floatingscenario.manager.anchorZone[278] 	contacts 	9
scalar Floatingscenario.manager.anchorZone[278] 	replicas 	0
scalar Floatingscenario.manager.anchorZone[278] 	xpos 	4200
scalar Floatingscenario.manager.anchorZone[278] 	ypos 	1000
scalar Floatingscenario.manager.anchorZone[278] 	numNodes 	7
scalar Floatingscenario.manager.anchorZone[279] 	criticality 	15
scalar Floatingscenario.manager.anchorZone[279] 	criticality2 	13.288201988197
scalar Floatingscenario.manager.anchorZone[279] 	criticality3 	4.2133323377211
scalar Floatingscenario.manager.anchorZone[279] 	removed 	1
scalar Floatingscenario.manager.anchorZone[279] 	infected 	1
scalar Floatingscenario.manager.anchorZone[279] 	transit 	41
scalar Floatingscenario.manager.anchorZone[279] 	contactsPerSecond 	0.0059481656169191
scalar Floatingscenario.manager.anchorZone[279] 	timeAverage 	54.487804878049
scalar Floatingscenario.manager.anchorZone[279] 	avgContacts 	0.36585365853659
scalar Floatingscenario.manager.anchorZone[279] 	contactTime 	0
scalar Floatingscenario.manager.anchorZone[279] 	contacts 	15
scalar Floatingscenario.manager.anchorZone[279] 	replicas 	0
scalar Floatingscenario.manager.anchorZone[279] 	xpos 	4200
scalar Floatingscenario.manager.anchorZone[279] 	ypos 	1200
scalar Floatingscenario.manager.anchorZone[279] 	numNodes 	10
scalar Floatingscenario.manager.anchorZone[280] 	criticality 	13
scalar Floatingscenario.manager.anchorZone[280] 	criticality2 	6.9669632901469
scalar Floatingscenario.manager.anchorZone[280] 	criticality3 	2.7445612961185
scalar Floatingscenario.manager.anchorZone[280] 	removed 	3
scalar Floatingscenario.manager.anchorZone[280] 	infected 	9
scalar Floatingscenario.manager.anchorZone[280] 	transit 	33
scalar Floatingscenario.manager.anchorZone[280] 	contactsPerSecond 	0.0032971903881433
scalar Floatingscenario.manager.anchorZone[280] 	timeAverage 	64.030303030303
scalar Floatingscenario.manager.anchorZone[280] 	avgContacts 	0.39393939393939
scalar Floatingscenario.manager.anchorZone[280] 	contactTime 	0
scalar Floatingscenario.manager.anchorZone[280] 	contacts 	13
scalar Floatingscenario.manager.anchorZone[280] 	replicas 	6
scalar Floatingscenario.manager.anchorZone[280] 	xpos 	4200
scalar Floatingscenario.manager.anchorZone[280] 	ypos 	1400
scalar Floatingscenario.manager.anchorZone[280] 	numNodes 	10
scalar Floatingscenario.manager.anchorZone[281] 	criticality 	10
scalar Floatingscenario.manager.anchorZone[281] 	criticality2 	3.9823524060773
scalar Floatingscenario.manager.anchorZone[281] 	criticality3 	1.5929409624309
scalar Floatingscenario.manager.anchorZone[281] 	removed 	2
scalar Floatingscenario.manager.anchorZone[281] 	infected 	8
scalar Floatingscenario.manager.anchorZone[281] 	transit 	30
scalar Floatingscenario.manager.anchorZone[281] 	contactsPerSecond 	0.002087186795638
scalar Floatingscenario.manager.anchorZone[281] 	timeAverage 	63.6
scalar Floatingscenario.manager.anchorZone[281] 	avgContacts 	0.33333333333333
scalar Floatingscenario.manager.anchorZone[281] 	contactTime 	0
scalar Floatingscenario.manager.anchorZone[281] 	contacts 	10
scalar Floatingscenario.manager.anchorZone[281] 	replicas 	6
scalar Floatingscenario.manager.anchorZone[281] 	xpos 	4200
scalar Floatingscenario.manager.anchorZone[281] 	ypos 	1600
scalar Floatingscenario.manager.anchorZone[281] 	numNodes 	8
scalar Floatingscenario.manager.anchorZone[282] 	criticality 	5
scalar Floatingscenario.manager.anchorZone[282] 	criticality2 	3.5104307884264
scalar Floatingscenario.manager.anchorZone[282] 	criticality3 	1.1701435961421
scalar Floatingscenario.manager.anchorZone[282] 	removed 	1
scalar Floatingscenario.manager.anchorZone[282] 	infected 	1
scalar Floatingscenario.manager.anchorZone[282] 	transit 	27
scalar Floatingscenario.manager.anchorZone[282] 	contactsPerSecond 	0.0023783406425653
scalar Floatingscenario.manager.anchorZone[282] 	timeAverage 	54.666666666667
scalar Floatingscenario.manager.anchorZone[282] 	avgContacts 	0.18518518518519
scalar Floatingscenario.manager.anchorZone[282] 	contactTime 	0
scalar Floatingscenario.manager.anchorZone[282] 	contacts 	5
scalar Floatingscenario.manager.anchorZone[282] 	replicas 	0
scalar Floatingscenario.manager.anchorZone[282] 	xpos 	4200
scalar Floatingscenario.manager.anchorZone[282] 	ypos 	1800
scalar Floatingscenario.manager.anchorZone[282] 	numNodes 	7
scalar Floatingscenario.manager.anchorZone[283] 	criticality 	0
scalar Floatingscenario.manager.anchorZone[283] 	criticality2 	0
scalar Floatingscenario.manager.anchorZone[283] 	criticality3 	0
scalar Floatingscenario.manager.anchorZone[283] 	removed 	1
scalar Floatingscenario.manager.anchorZone[283] 	infected 	1
scalar Floatingscenario.manager.anchorZone[283] 	transit 	10
scalar Floatingscenario.manager.anchorZone[283] 	contactsPerSecond 	0
scalar Floatingscenario.manager.anchorZone[283] 	timeAverage 	9.4
scalar Floatingscenario.manager.anchorZone[283] 	avgContacts 	0
scalar Floatingscenario.manager.anchorZone[283] 	contactTime 	0
scalar Floatingscenario.manager.anchorZone[283] 	contacts 	0
scalar Floatingscenario.manager.anchorZone[283] 	replicas 	0
scalar Floatingscenario.manager.anchorZone[283] 	xpos 	4200
scalar Floatingscenario.manager.anchorZone[283] 	ypos 	2000
scalar Floatingscenario.manager.anchorZone[283] 	numNodes 	0
scalar Floatingscenario.manager.anchorZone[284] 	criticality 	0
scalar Floatingscenario.manager.anchorZone[284] 	criticality2 	0
scalar Floatingscenario.manager.anchorZone[284] 	criticality3 	0
scalar Floatingscenario.manager.anchorZone[284] 	removed 	1
scalar Floatingscenario.manager.anchorZone[284] 	infected 	1
scalar Floatingscenario.manager.anchorZone[284] 	transit 	1
scalar Floatingscenario.manager.anchorZone[284] 	contactsPerSecond 	0
scalar Floatingscenario.manager.anchorZone[284] 	timeAverage 	5
scalar Floatingscenario.manager.anchorZone[284] 	avgContacts 	0
scalar Floatingscenario.manager.anchorZone[284] 	contactTime 	0
scalar Floatingscenario.manager.anchorZone[284] 	contacts 	0
scalar Floatingscenario.manager.anchorZone[284] 	replicas 	0
scalar Floatingscenario.manager.anchorZone[284] 	xpos 	4200
scalar Floatingscenario.manager.anchorZone[284] 	ypos 	2200
scalar Floatingscenario.manager.anchorZone[284] 	numNodes 	0
scalar Floatingscenario.manager.anchorZone[285] 	criticality 	0
scalar Floatingscenario.manager.anchorZone[285] 	criticality2 	0
scalar Floatingscenario.manager.anchorZone[285] 	criticality3 	0
scalar Floatingscenario.manager.anchorZone[285] 	removed 	0
scalar Floatingscenario.manager.anchorZone[285] 	infected 	0
scalar Floatingscenario.manager.anchorZone[285] 	transit 	0
scalar Floatingscenario.manager.anchorZone[285] 	contactsPerSecond 	0
scalar Floatingscenario.manager.anchorZone[285] 	timeAverage 	0
scalar Floatingscenario.manager.anchorZone[285] 	avgContacts 	0
scalar Floatingscenario.manager.anchorZone[285] 	contactTime 	0
scalar Floatingscenario.manager.anchorZone[285] 	contacts 	0
scalar Floatingscenario.manager.anchorZone[285] 	replicas 	0
scalar Floatingscenario.manager.anchorZone[285] 	xpos 	4200
scalar Floatingscenario.manager.anchorZone[285] 	ypos 	2400
scalar Floatingscenario.manager.anchorZone[285] 	numNodes 	0
scalar Floatingscenario.manager.anchorZone[286] 	criticality 	0
scalar Floatingscenario.manager.anchorZone[286] 	criticality2 	0
scalar Floatingscenario.manager.anchorZone[286] 	criticality3 	0
scalar Floatingscenario.manager.anchorZone[286] 	removed 	0
scalar Floatingscenario.manager.anchorZone[286] 	infected 	0
scalar Floatingscenario.manager.anchorZone[286] 	transit 	0
scalar Floatingscenario.manager.anchorZone[286] 	contactsPerSecond 	0
scalar Floatingscenario.manager.anchorZone[286] 	timeAverage 	0
scalar Floatingscenario.manager.anchorZone[286] 	avgContacts 	0
scalar Floatingscenario.manager.anchorZone[286] 	contactTime 	0
scalar Floatingscenario.manager.anchorZone[286] 	contacts 	0
scalar Floatingscenario.manager.anchorZone[286] 	replicas 	0
scalar Floatingscenario.manager.anchorZone[286] 	xpos 	4400
scalar Floatingscenario.manager.anchorZone[286] 	ypos 	0
scalar Floatingscenario.manager.anchorZone[286] 	numNodes 	0
scalar Floatingscenario.manager.anchorZone[287] 	criticality 	0
scalar Floatingscenario.manager.anchorZone[287] 	criticality2 	0
scalar Floatingscenario.manager.anchorZone[287] 	criticality3 	0
scalar Floatingscenario.manager.anchorZone[287] 	removed 	0
scalar Floatingscenario.manager.anchorZone[287] 	infected 	0
scalar Floatingscenario.manager.anchorZone[287] 	transit 	0
scalar Floatingscenario.manager.anchorZone[287] 	contactsPerSecond 	0
scalar Floatingscenario.manager.anchorZone[287] 	timeAverage 	0
scalar Floatingscenario.manager.anchorZone[287] 	avgContacts 	0
scalar Floatingscenario.manager.anchorZone[287] 	contactTime 	0
scalar Floatingscenario.manager.anchorZone[287] 	contacts 	0
scalar Floatingscenario.manager.anchorZone[287] 	replicas 	0
scalar Floatingscenario.manager.anchorZone[287] 	xpos 	4400
scalar Floatingscenario.manager.anchorZone[287] 	ypos 	200
scalar Floatingscenario.manager.anchorZone[287] 	numNodes 	0
scalar Floatingscenario.manager.anchorZone[288] 	criticality 	0
scalar Floatingscenario.manager.anchorZone[288] 	criticality2 	0
scalar Floatingscenario.manager.anchorZone[288] 	criticality3 	0
scalar Floatingscenario.manager.anchorZone[288] 	removed 	0
scalar Floatingscenario.manager.anchorZone[288] 	infected 	0
scalar Floatingscenario.manager.anchorZone[288] 	transit 	0
scalar Floatingscenario.manager.anchorZone[288] 	contactsPerSecond 	0
scalar Floatingscenario.manager.anchorZone[288] 	timeAverage 	0
scalar Floatingscenario.manager.anchorZone[288] 	avgContacts 	0
scalar Floatingscenario.manager.anchorZone[288] 	contactTime 	0
scalar Floatingscenario.manager.anchorZone[288] 	contacts 	0
scalar Floatingscenario.manager.anchorZone[288] 	replicas 	0
scalar Floatingscenario.manager.anchorZone[288] 	xpos 	4400
scalar Floatingscenario.manager.anchorZone[288] 	ypos 	400
scalar Floatingscenario.manager.anchorZone[288] 	numNodes 	0
scalar Floatingscenario.manager.anchorZone[289] 	criticality 	0
scalar Floatingscenario.manager.anchorZone[289] 	criticality2 	0
scalar Floatingscenario.manager.anchorZone[289] 	criticality3 	0
scalar Floatingscenario.manager.anchorZone[289] 	removed 	1
scalar Floatingscenario.manager.anchorZone[289] 	infected 	1
scalar Floatingscenario.manager.anchorZone[289] 	transit 	4
scalar Floatingscenario.manager.anchorZone[289] 	contactsPerSecond 	0
scalar Floatingscenario.manager.anchorZone[289] 	timeAverage 	10
scalar Floatingscenario.manager.anchorZone[289] 	avgContacts 	0
scalar Floatingscenario.manager.anchorZone[289] 	contactTime 	0
scalar Floatingscenario.manager.anchorZone[289] 	contacts 	0
scalar Floatingscenario.manager.anchorZone[289] 	replicas 	0
scalar Floatingscenario.manager.anchorZone[289] 	xpos 	4400
scalar Floatingscenario.manager.anchorZone[289] 	ypos 	600
scalar Floatingscenario.manager.anchorZone[289] 	numNodes 	0
scalar Floatingscenario.manager.anchorZone[290] 	criticality 	0
scalar Floatingscenario.manager.anchorZone[290] 	criticality2 	0
scalar Floatingscenario.manager.anchorZone[290] 	criticality3 	0
scalar Floatingscenario.manager.anchorZone[290] 	removed 	1
scalar Floatingscenario.manager.anchorZone[290] 	infected 	1
scalar Floatingscenario.manager.anchorZone[290] 	transit 	9
scalar Floatingscenario.manager.anchorZone[290] 	contactsPerSecond 	0
scalar Floatingscenario.manager.anchorZone[290] 	timeAverage 	17.333333333333
scalar Floatingscenario.manager.anchorZone[290] 	avgContacts 	0
scalar Floatingscenario.manager.anchorZone[290] 	contactTime 	0
scalar Floatingscenario.manager.anchorZone[290] 	contacts 	0
scalar Floatingscenario.manager.anchorZone[290] 	replicas 	0
scalar Floatingscenario.manager.anchorZone[290] 	xpos 	4400
scalar Floatingscenario.manager.anchorZone[290] 	ypos 	800
scalar Floatingscenario.manager.anchorZone[290] 	numNodes 	1
scalar Floatingscenario.manager.anchorZone[291] 	criticality 	1
scalar Floatingscenario.manager.anchorZone[291] 	criticality2 	2.4556985294118
scalar Floatingscenario.manager.anchorZone[291] 	criticality3 	0.51160386029412
scalar Floatingscenario.manager.anchorZone[291] 	removed 	2
scalar Floatingscenario.manager.anchorZone[291] 	infected 	2
scalar Floatingscenario.manager.anchorZone[291] 	transit 	24
scalar Floatingscenario.manager.anchorZone[291] 	contactsPerSecond 	0.0044730392156863
scalar Floatingscenario.manager.anchorZone[291] 	timeAverage 	22.875
scalar Floatingscenario.manager.anchorZone[291] 	avgContacts 	0.041666666666667
scalar Floatingscenario.manager.anchorZone[291] 	contactTime 	0
scalar Floatingscenario.manager.anchorZone[291] 	contacts 	1
scalar Floatingscenario.manager.anchorZone[291] 	replicas 	0
scalar Floatingscenario.manager.anchorZone[291] 	xpos 	4400
scalar Floatingscenario.manager.anchorZone[291] 	ypos 	1000
scalar Floatingscenario.manager.anchorZone[291] 	numNodes 	1
scalar Floatingscenario.manager.anchorZone[292] 	criticality 	4
scalar Floatingscenario.manager.anchorZone[292] 	criticality2 	13.264266089352
scalar Floatingscenario.manager.anchorZone[292] 	criticality3 	4.4214220297839
scalar Floatingscenario.manager.anchorZone[292] 	removed 	3
scalar Floatingscenario.manager.anchorZone[292] 	infected 	3
scalar Floatingscenario.manager.anchorZone[292] 	transit 	24
scalar Floatingscenario.manager.anchorZone[292] 	contactsPerSecond 	0.01007157637764
scalar Floatingscenario.manager.anchorZone[292] 	timeAverage 	54.875
scalar Floatingscenario.manager.anchorZone[292] 	avgContacts 	0.16666666666667
scalar Floatingscenario.manager.anchorZone[292] 	contactTime 	0
scalar Floatingscenario.manager.anchorZone[292] 	contacts 	4
scalar Floatingscenario.manager.anchorZone[292] 	replicas 	0
scalar Floatingscenario.manager.anchorZone[292] 	xpos 	4400
scalar Floatingscenario.manager.anchorZone[292] 	ypos 	1200
scalar Floatingscenario.manager.anchorZone[292] 	numNodes 	2
scalar Floatingscenario.manager.anchorZone[293] 	criticality 	5
scalar Floatingscenario.manager.anchorZone[293] 	criticality2 	4.0245568190169
scalar Floatingscenario.manager.anchorZone[293] 	criticality3 	1.5748265813545
scalar Floatingscenario.manager.anchorZone[293] 	removed 	2
scalar Floatingscenario.manager.anchorZone[293] 	infected 	2
scalar Floatingscenario.manager.anchorZone[293] 	transit 	23
scalar Floatingscenario.manager.anchorZone[293] 	contactsPerSecond 	0.0026321496527253
scalar Floatingscenario.manager.anchorZone[293] 	timeAverage 	66.478260869565
scalar Floatingscenario.manager.anchorZone[293] 	avgContacts 	0.21739130434783
scalar Floatingscenario.manager.anchorZone[293] 	contactTime 	0
scalar Floatingscenario.manager.anchorZone[293] 	contacts 	5
scalar Floatingscenario.manager.anchorZone[293] 	replicas 	0
scalar Floatingscenario.manager.anchorZone[293] 	xpos 	4400
scalar Floatingscenario.manager.anchorZone[293] 	ypos 	1400
scalar Floatingscenario.manager.anchorZone[293] 	numNodes 	5
scalar Floatingscenario.manager.anchorZone[294] 	criticality 	2
scalar Floatingscenario.manager.anchorZone[294] 	criticality2 	2.3556334894406
scalar Floatingscenario.manager.anchorZone[294] 	criticality3 	0.8565939961602
scalar Floatingscenario.manager.anchorZone[294] 	removed 	1
scalar Floatingscenario.manager.anchorZone[294] 	infected 	1
scalar Floatingscenario.manager.anchorZone[294] 	transit 	22
scalar Floatingscenario.manager.anchorZone[294] 	contactsPerSecond 	0.0018935960526049
scalar Floatingscenario.manager.anchorZone[294] 	timeAverage 	56.545454545455
scalar Floatingscenario.manager.anchorZone[294] 	avgContacts 	0.090909090909091
scalar Floatingscenario.manager.anchorZone[294] 	contactTime 	0
scalar Floatingscenario.manager.anchorZone[294] 	contacts 	2
scalar Floatingscenario.manager.anchorZone[294] 	replicas 	0
scalar Floatingscenario.manager.anchorZone[294] 	xpos 	4400
scalar Floatingscenario.manager.anchorZone[294] 	ypos 	1600
scalar Floatingscenario.manager.anchorZone[294] 	numNodes 	2
scalar Floatingscenario.manager.anchorZone[295] 	criticality 	0
scalar Floatingscenario.manager.anchorZone[295] 	criticality2 	0
scalar Floatingscenario.manager.anchorZone[295] 	criticality3 	0
scalar Floatingscenario.manager.anchorZone[295] 	removed 	1
scalar Floatingscenario.manager.anchorZone[295] 	infected 	1
scalar Floatingscenario.manager.anchorZone[295] 	transit 	12
scalar Floatingscenario.manager.anchorZone[295] 	contactsPerSecond 	0
scalar Floatingscenario.manager.anchorZone[295] 	timeAverage 	29.083333333333
scalar Floatingscenario.manager.anchorZone[295] 	avgContacts 	0
scalar Floatingscenario.manager.anchorZone[295] 	contactTime 	0
scalar Floatingscenario.manager.anchorZone[295] 	contacts 	0
scalar Floatingscenario.manager.anchorZone[295] 	replicas 	0
scalar Floatingscenario.manager.anchorZone[295] 	xpos 	4400
scalar Floatingscenario.manager.anchorZone[295] 	ypos 	1800
scalar Floatingscenario.manager.anchorZone[295] 	numNodes 	1
scalar Floatingscenario.manager.anchorZone[296] 	criticality 	0
scalar Floatingscenario.manager.anchorZone[296] 	criticality2 	0
scalar Floatingscenario.manager.anchorZone[296] 	criticality3 	0
scalar Floatingscenario.manager.anchorZone[296] 	removed 	1
scalar Floatingscenario.manager.anchorZone[296] 	infected 	1
scalar Floatingscenario.manager.anchorZone[296] 	transit 	8
scalar Floatingscenario.manager.anchorZone[296] 	contactsPerSecond 	0
scalar Floatingscenario.manager.anchorZone[296] 	timeAverage 	5.375
scalar Floatingscenario.manager.anchorZone[296] 	avgContacts 	0
scalar Floatingscenario.manager.anchorZone[296] 	contactTime 	0
scalar Floatingscenario.manager.anchorZone[296] 	contacts 	0
scalar Floatingscenario.manager.anchorZone[296] 	replicas 	0
scalar Floatingscenario.manager.anchorZone[296] 	xpos 	4400
scalar Floatingscenario.manager.anchorZone[296] 	ypos 	2000
scalar Floatingscenario.manager.anchorZone[296] 	numNodes 	0
scalar Floatingscenario.manager.anchorZone[297] 	criticality 	0
scalar Floatingscenario.manager.anchorZone[297] 	criticality2 	0
scalar Floatingscenario.manager.anchorZone[297] 	criticality3 	0
scalar Floatingscenario.manager.anchorZone[297] 	removed 	0
scalar Floatingscenario.manager.anchorZone[297] 	infected 	0
scalar Floatingscenario.manager.anchorZone[297] 	transit 	0
scalar Floatingscenario.manager.anchorZone[297] 	contactsPerSecond 	0
scalar Floatingscenario.manager.anchorZone[297] 	timeAverage 	0
scalar Floatingscenario.manager.anchorZone[297] 	avgContacts 	0
scalar Floatingscenario.manager.anchorZone[297] 	contactTime 	0
scalar Floatingscenario.manager.anchorZone[297] 	contacts 	0
scalar Floatingscenario.manager.anchorZone[297] 	replicas 	0
scalar Floatingscenario.manager.anchorZone[297] 	xpos 	4400
scalar Floatingscenario.manager.anchorZone[297] 	ypos 	2200
scalar Floatingscenario.manager.anchorZone[297] 	numNodes 	0
scalar Floatingscenario.manager.anchorZone[298] 	criticality 	0
scalar Floatingscenario.manager.anchorZone[298] 	criticality2 	0
scalar Floatingscenario.manager.anchorZone[298] 	criticality3 	0
scalar Floatingscenario.manager.anchorZone[298] 	removed 	0
scalar Floatingscenario.manager.anchorZone[298] 	infected 	0
scalar Floatingscenario.manager.anchorZone[298] 	transit 	0
scalar Floatingscenario.manager.anchorZone[298] 	contactsPerSecond 	0
scalar Floatingscenario.manager.anchorZone[298] 	timeAverage 	0
scalar Floatingscenario.manager.anchorZone[298] 	avgContacts 	0
scalar Floatingscenario.manager.anchorZone[298] 	contactTime 	0
scalar Floatingscenario.manager.anchorZone[298] 	contacts 	0
scalar Floatingscenario.manager.anchorZone[298] 	replicas 	0
scalar Floatingscenario.manager.anchorZone[298] 	xpos 	4400
scalar Floatingscenario.manager.anchorZone[298] 	ypos 	2400
scalar Floatingscenario.manager.anchorZone[298] 	numNodes 	0
