version 2
run nodebug-0-20140628-18:02:18-4157
attr configname nodebug
attr datetime 20140628-18:02:18
attr experiment nodebug
attr inifile omnetpp.ini
attr iterationvars ""
attr iterationvars2 $repetition=0
attr measurement ""
attr network Floatingscenario
attr processid 4157
attr repetition 0
attr replication #0
attr resultdir results
attr runnumber 0
attr seedset 0

scalar Floatingscenario.node[6].nic.phy80211p 	busyTime 	3.732633279483e-05
scalar Floatingscenario.node[6].nic.mac1609_4 	ReceivedUnicastPackets 	0
scalar Floatingscenario.node[6].nic.mac1609_4 	ReceivedBroadcasts 	13
scalar Floatingscenario.node[6].nic.mac1609_4 	SentPackets 	3
scalar Floatingscenario.node[6].nic.mac1609_4 	SNIRLostPackets 	0
scalar Floatingscenario.node[6].nic.mac1609_4 	RXTXLostPackets 	0
scalar Floatingscenario.node[6].nic.mac1609_4 	TotalLostPackets 	0
scalar Floatingscenario.node[6].nic.mac1609_4 	DroppedPacketsInMac 	0
scalar Floatingscenario.node[6].nic.mac1609_4 	TooLittleTime 	0
scalar Floatingscenario.node[6].nic.mac1609_4 	TimesIntoBackoff 	5
scalar Floatingscenario.node[6].nic.mac1609_4 	SlotsBackoff 	21
scalar Floatingscenario.node[6].nic.mac1609_4 	NumInternalContention 	0
scalar Floatingscenario.node[6].nic.mac1609_4 	totalBusyTime 	0.005779
scalar Floatingscenario.node[6].mobility 	startTime 	6.1
scalar Floatingscenario.node[6].mobility 	totalTime 	123.7
scalar Floatingscenario.node[6].mobility 	stopTime 	129.9
scalar Floatingscenario.node[6].mobility 	minSpeed 	3.322853211367
scalar Floatingscenario.node[6].mobility 	maxSpeed 	27.779792706172
scalar Floatingscenario.node[6].mobility 	totalDistance 	2155.1619640692
scalar Floatingscenario.node[6].mobility 	totalCO2Emission 	496.13052159401
scalar Floatingscenario.node[12].nic.phy80211p 	busyTime 	0.00026166990291262
scalar Floatingscenario.node[12].nic.mac1609_4 	ReceivedUnicastPackets 	0
scalar Floatingscenario.node[12].nic.mac1609_4 	ReceivedBroadcasts 	78
scalar Floatingscenario.node[12].nic.mac1609_4 	SentPackets 	4
scalar Floatingscenario.node[12].nic.mac1609_4 	SNIRLostPackets 	30
scalar Floatingscenario.node[12].nic.mac1609_4 	RXTXLostPackets 	0
scalar Floatingscenario.node[12].nic.mac1609_4 	TotalLostPackets 	30
scalar Floatingscenario.node[12].nic.mac1609_4 	DroppedPacketsInMac 	0
scalar Floatingscenario.node[12].nic.mac1609_4 	TooLittleTime 	0
scalar Floatingscenario.node[12].nic.mac1609_4 	TimesIntoBackoff 	5
scalar Floatingscenario.node[12].nic.mac1609_4 	SlotsBackoff 	15
scalar Floatingscenario.node[12].nic.mac1609_4 	NumInternalContention 	0
scalar Floatingscenario.node[12].nic.mac1609_4 	totalBusyTime 	0.03548011369
scalar Floatingscenario.node[12].mobility 	startTime 	12.1
scalar Floatingscenario.node[12].mobility 	totalTime 	154.4
scalar Floatingscenario.node[12].mobility 	stopTime 	166.6
scalar Floatingscenario.node[12].mobility 	minSpeed 	3.3091279300715
scalar Floatingscenario.node[12].mobility 	maxSpeed 	18.233286509991
scalar Floatingscenario.node[12].mobility 	totalDistance 	1844.0974221777
scalar Floatingscenario.node[12].mobility 	totalCO2Emission 	446.01474361401
scalar Floatingscenario.node[54].nic.phy80211p 	busyTime 	0.00036065084226646
scalar Floatingscenario.node[54].nic.mac1609_4 	ReceivedUnicastPackets 	0
scalar Floatingscenario.node[54].nic.mac1609_4 	ReceivedBroadcasts 	79
scalar Floatingscenario.node[54].nic.mac1609_4 	SentPackets 	0
scalar Floatingscenario.node[54].nic.mac1609_4 	SNIRLostPackets 	46
scalar Floatingscenario.node[54].nic.mac1609_4 	RXTXLostPackets 	0
scalar Floatingscenario.node[54].nic.mac1609_4 	TotalLostPackets 	46
scalar Floatingscenario.node[54].nic.mac1609_4 	DroppedPacketsInMac 	0
scalar Floatingscenario.node[54].nic.mac1609_4 	TooLittleTime 	0
scalar Floatingscenario.node[54].nic.mac1609_4 	TimesIntoBackoff 	0
scalar Floatingscenario.node[54].nic.mac1609_4 	SlotsBackoff 	0
scalar Floatingscenario.node[54].nic.mac1609_4 	NumInternalContention 	0
scalar Floatingscenario.node[54].nic.mac1609_4 	totalBusyTime 	0.03811596393
scalar Floatingscenario.node[54].mobility 	startTime 	54.1
scalar Floatingscenario.node[54].mobility 	totalTime 	130.5
scalar Floatingscenario.node[54].mobility 	stopTime 	184.7
scalar Floatingscenario.node[54].mobility 	minSpeed 	0.037920676705795
scalar Floatingscenario.node[54].mobility 	maxSpeed 	22.219831926851
scalar Floatingscenario.node[54].mobility 	totalDistance 	1623.8008807067
scalar Floatingscenario.node[54].mobility 	totalCO2Emission 	430.51330591628
scalar Floatingscenario.node[21].nic.phy80211p 	busyTime 	0.0001611051051051
scalar Floatingscenario.node[21].nic.mac1609_4 	ReceivedUnicastPackets 	0
scalar Floatingscenario.node[21].nic.mac1609_4 	ReceivedBroadcasts 	61
scalar Floatingscenario.node[21].nic.mac1609_4 	SentPackets 	7
scalar Floatingscenario.node[21].nic.mac1609_4 	SNIRLostPackets 	11
scalar Floatingscenario.node[21].nic.mac1609_4 	RXTXLostPackets 	1
scalar Floatingscenario.node[21].nic.mac1609_4 	TotalLostPackets 	12
scalar Floatingscenario.node[21].nic.mac1609_4 	DroppedPacketsInMac 	0
scalar Floatingscenario.node[21].nic.mac1609_4 	TooLittleTime 	0
scalar Floatingscenario.node[21].nic.mac1609_4 	TimesIntoBackoff 	10
scalar Floatingscenario.node[21].nic.mac1609_4 	SlotsBackoff 	31
scalar Floatingscenario.node[21].nic.mac1609_4 	NumInternalContention 	0
scalar Floatingscenario.node[21].nic.mac1609_4 	totalBusyTime 	0.02782783969
scalar Floatingscenario.node[21].mobility 	startTime 	21.1
scalar Floatingscenario.node[21].mobility 	totalTime 	166.4
scalar Floatingscenario.node[21].mobility 	stopTime 	187.6
scalar Floatingscenario.node[21].mobility 	minSpeed 	0.90791427083313
scalar Floatingscenario.node[21].mobility 	maxSpeed 	22.21986643774
scalar Floatingscenario.node[21].mobility 	totalDistance 	2332.7324183784
scalar Floatingscenario.node[21].mobility 	totalCO2Emission 	536.43205937297
scalar Floatingscenario.node[26].nic.phy80211p 	busyTime 	0.00010194857142857
scalar Floatingscenario.node[26].nic.mac1609_4 	ReceivedUnicastPackets 	0
scalar Floatingscenario.node[26].nic.mac1609_4 	ReceivedBroadcasts 	42
scalar Floatingscenario.node[26].nic.mac1609_4 	SentPackets 	1
scalar Floatingscenario.node[26].nic.mac1609_4 	SNIRLostPackets 	7
scalar Floatingscenario.node[26].nic.mac1609_4 	RXTXLostPackets 	0
scalar Floatingscenario.node[26].nic.mac1609_4 	TotalLostPackets 	7
scalar Floatingscenario.node[26].nic.mac1609_4 	DroppedPacketsInMac 	0
scalar Floatingscenario.node[26].nic.mac1609_4 	TooLittleTime 	0
scalar Floatingscenario.node[26].nic.mac1609_4 	TimesIntoBackoff 	1
scalar Floatingscenario.node[26].nic.mac1609_4 	SlotsBackoff 	1
scalar Floatingscenario.node[26].nic.mac1609_4 	NumInternalContention 	0
scalar Floatingscenario.node[26].nic.mac1609_4 	totalBusyTime 	0.016681345583
scalar Floatingscenario.node[26].mobility 	startTime 	26.1
scalar Floatingscenario.node[26].mobility 	totalTime 	174.9
scalar Floatingscenario.node[26].mobility 	stopTime 	201.1
scalar Floatingscenario.node[26].mobility 	minSpeed 	0.00091668224797328
scalar Floatingscenario.node[26].mobility 	maxSpeed 	27.779939378768
scalar Floatingscenario.node[26].mobility 	totalDistance 	2559.969017907
scalar Floatingscenario.node[26].mobility 	totalCO2Emission 	764.78578111575
scalar Floatingscenario.node[28].nic.phy80211p 	busyTime 	0.00033505882352941
scalar Floatingscenario.node[28].nic.mac1609_4 	ReceivedUnicastPackets 	0
scalar Floatingscenario.node[28].nic.mac1609_4 	ReceivedBroadcasts 	104
scalar Floatingscenario.node[28].nic.mac1609_4 	SentPackets 	12
scalar Floatingscenario.node[28].nic.mac1609_4 	SNIRLostPackets 	56
scalar Floatingscenario.node[28].nic.mac1609_4 	RXTXLostPackets 	5
scalar Floatingscenario.node[28].nic.mac1609_4 	TotalLostPackets 	61
scalar Floatingscenario.node[28].nic.mac1609_4 	DroppedPacketsInMac 	0
scalar Floatingscenario.node[28].nic.mac1609_4 	TooLittleTime 	0
scalar Floatingscenario.node[28].nic.mac1609_4 	TimesIntoBackoff 	22
scalar Floatingscenario.node[28].nic.mac1609_4 	SlotsBackoff 	66
scalar Floatingscenario.node[28].nic.mac1609_4 	NumInternalContention 	0
scalar Floatingscenario.node[28].nic.mac1609_4 	totalBusyTime 	0.053130049937
scalar Floatingscenario.node[28].mobility 	startTime 	28.1
scalar Floatingscenario.node[28].mobility 	totalTime 	178.4
scalar Floatingscenario.node[28].mobility 	stopTime 	206.6
scalar Floatingscenario.node[28].mobility 	minSpeed 	3.0361245908045e-06
scalar Floatingscenario.node[28].mobility 	maxSpeed 	22.219604025793
scalar Floatingscenario.node[28].mobility 	totalDistance 	2334.073920884
scalar Floatingscenario.node[28].mobility 	totalCO2Emission 	529.32461411239
scalar Floatingscenario.node[49].nic.phy80211p 	busyTime 	0.00056136238279095
scalar Floatingscenario.node[49].nic.mac1609_4 	ReceivedUnicastPackets 	0
scalar Floatingscenario.node[49].nic.mac1609_4 	ReceivedBroadcasts 	169
scalar Floatingscenario.node[49].nic.mac1609_4 	SentPackets 	16
scalar Floatingscenario.node[49].nic.mac1609_4 	SNIRLostPackets 	102
scalar Floatingscenario.node[49].nic.mac1609_4 	RXTXLostPackets 	3
scalar Floatingscenario.node[49].nic.mac1609_4 	TotalLostPackets 	105
scalar Floatingscenario.node[49].nic.mac1609_4 	DroppedPacketsInMac 	0
scalar Floatingscenario.node[49].nic.mac1609_4 	TooLittleTime 	0
scalar Floatingscenario.node[49].nic.mac1609_4 	TimesIntoBackoff 	16
scalar Floatingscenario.node[49].nic.mac1609_4 	SlotsBackoff 	55
scalar Floatingscenario.node[49].nic.mac1609_4 	NumInternalContention 	0
scalar Floatingscenario.node[49].nic.mac1609_4 	totalBusyTime 	0.088250475419
scalar Floatingscenario.node[49].mobility 	startTime 	49.1
scalar Floatingscenario.node[49].mobility 	totalTime 	181.2
scalar Floatingscenario.node[49].mobility 	stopTime 	230.4
scalar Floatingscenario.node[49].mobility 	minSpeed 	5.8568707558644e-14
scalar Floatingscenario.node[49].mobility 	maxSpeed 	22.219639334939
scalar Floatingscenario.node[49].mobility 	totalDistance 	2040.5088056704
scalar Floatingscenario.node[49].mobility 	totalCO2Emission 	533.22462066537
scalar Floatingscenario.node[4].nic.phy80211p 	busyTime 	0.00061360332749562
scalar Floatingscenario.node[4].nic.mac1609_4 	ReceivedUnicastPackets 	0
scalar Floatingscenario.node[4].nic.mac1609_4 	ReceivedBroadcasts 	254
scalar Floatingscenario.node[4].nic.mac1609_4 	SentPackets 	7
scalar Floatingscenario.node[4].nic.mac1609_4 	SNIRLostPackets 	117
scalar Floatingscenario.node[4].nic.mac1609_4 	RXTXLostPackets 	2
scalar Floatingscenario.node[4].nic.mac1609_4 	TotalLostPackets 	119
scalar Floatingscenario.node[4].nic.mac1609_4 	DroppedPacketsInMac 	0
scalar Floatingscenario.node[4].nic.mac1609_4 	TooLittleTime 	0
scalar Floatingscenario.node[4].nic.mac1609_4 	TimesIntoBackoff 	11
scalar Floatingscenario.node[4].nic.mac1609_4 	SlotsBackoff 	32
scalar Floatingscenario.node[4].nic.mac1609_4 	NumInternalContention 	0
scalar Floatingscenario.node[4].nic.mac1609_4 	totalBusyTime 	0.119916420713
scalar Floatingscenario.node[4].mobility 	startTime 	4.1
scalar Floatingscenario.node[4].mobility 	totalTime 	228.3
scalar Floatingscenario.node[4].mobility 	stopTime 	232.5
scalar Floatingscenario.node[4].mobility 	minSpeed 	1.1256911220885e-13
scalar Floatingscenario.node[4].mobility 	maxSpeed 	22.219992804453
scalar Floatingscenario.node[4].mobility 	totalDistance 	2044.6321680316
scalar Floatingscenario.node[4].mobility 	totalCO2Emission 	594.98942255742
scalar Floatingscenario.node[18].nic.phy80211p 	busyTime 	0.00096095730337078
scalar Floatingscenario.node[18].nic.mac1609_4 	ReceivedUnicastPackets 	0
scalar Floatingscenario.node[18].nic.mac1609_4 	ReceivedBroadcasts 	327
scalar Floatingscenario.node[18].nic.mac1609_4 	SentPackets 	5
scalar Floatingscenario.node[18].nic.mac1609_4 	SNIRLostPackets 	238
scalar Floatingscenario.node[18].nic.mac1609_4 	RXTXLostPackets 	0
scalar Floatingscenario.node[18].nic.mac1609_4 	TotalLostPackets 	238
scalar Floatingscenario.node[18].nic.mac1609_4 	DroppedPacketsInMac 	0
scalar Floatingscenario.node[18].nic.mac1609_4 	TooLittleTime 	0
scalar Floatingscenario.node[18].nic.mac1609_4 	TimesIntoBackoff 	5
scalar Floatingscenario.node[18].nic.mac1609_4 	SlotsBackoff 	28
scalar Floatingscenario.node[18].nic.mac1609_4 	NumInternalContention 	0
scalar Floatingscenario.node[18].nic.mac1609_4 	totalBusyTime 	0.163828842981
scalar Floatingscenario.node[18].mobility 	startTime 	18.1
scalar Floatingscenario.node[18].mobility 	totalTime 	222.4
scalar Floatingscenario.node[18].mobility 	stopTime 	240.6
scalar Floatingscenario.node[18].mobility 	minSpeed 	1.1255084684089e-13
scalar Floatingscenario.node[18].mobility 	maxSpeed 	27.779189090237
scalar Floatingscenario.node[18].mobility 	totalDistance 	1970.1110680315
scalar Floatingscenario.node[18].mobility 	totalCO2Emission 	712.12889233273
scalar Floatingscenario.node[98].nic.phy80211p 	busyTime 	8.0478345184228e-05
scalar Floatingscenario.node[98].nic.mac1609_4 	ReceivedUnicastPackets 	0
scalar Floatingscenario.node[98].nic.mac1609_4 	ReceivedBroadcasts 	34
scalar Floatingscenario.node[98].nic.mac1609_4 	SentPackets 	0
scalar Floatingscenario.node[98].nic.mac1609_4 	SNIRLostPackets 	0
scalar Floatingscenario.node[98].nic.mac1609_4 	RXTXLostPackets 	0
scalar Floatingscenario.node[98].nic.mac1609_4 	TotalLostPackets 	0
scalar Floatingscenario.node[98].nic.mac1609_4 	DroppedPacketsInMac 	0
scalar Floatingscenario.node[98].nic.mac1609_4 	TooLittleTime 	0
scalar Floatingscenario.node[98].nic.mac1609_4 	TimesIntoBackoff 	0
scalar Floatingscenario.node[98].nic.mac1609_4 	SlotsBackoff 	0
scalar Floatingscenario.node[98].nic.mac1609_4 	NumInternalContention 	0
scalar Floatingscenario.node[98].nic.mac1609_4 	totalBusyTime 	0.01245
scalar Floatingscenario.node[98].mobility 	startTime 	98.1
scalar Floatingscenario.node[98].mobility 	totalTime 	154.6
scalar Floatingscenario.node[98].mobility 	stopTime 	252.8
scalar Floatingscenario.node[98].mobility 	minSpeed 	9.9416579676567e-07
scalar Floatingscenario.node[98].mobility 	maxSpeed 	26.414952500623
scalar Floatingscenario.node[98].mobility 	totalDistance 	2096.0200480328
scalar Floatingscenario.node[98].mobility 	totalCO2Emission 	627.98738058171
scalar Floatingscenario.node[63].nic.phy80211p 	busyTime 	0.00092879896907216
scalar Floatingscenario.node[63].nic.mac1609_4 	ReceivedUnicastPackets 	0
scalar Floatingscenario.node[63].nic.mac1609_4 	ReceivedBroadcasts 	284
scalar Floatingscenario.node[63].nic.mac1609_4 	SentPackets 	8
scalar Floatingscenario.node[63].nic.mac1609_4 	SNIRLostPackets 	191
scalar Floatingscenario.node[63].nic.mac1609_4 	RXTXLostPackets 	0
scalar Floatingscenario.node[63].nic.mac1609_4 	TotalLostPackets 	191
scalar Floatingscenario.node[63].nic.mac1609_4 	DroppedPacketsInMac 	0
scalar Floatingscenario.node[63].nic.mac1609_4 	TooLittleTime 	0
scalar Floatingscenario.node[63].nic.mac1609_4 	TimesIntoBackoff 	13
scalar Floatingscenario.node[63].nic.mac1609_4 	SlotsBackoff 	35
scalar Floatingscenario.node[63].nic.mac1609_4 	NumInternalContention 	0
scalar Floatingscenario.node[63].nic.mac1609_4 	totalBusyTime 	0.142190334294
scalar Floatingscenario.node[63].mobility 	startTime 	63.1
scalar Floatingscenario.node[63].mobility 	totalTime 	193.9
scalar Floatingscenario.node[63].mobility 	stopTime 	257.1
scalar Floatingscenario.node[63].mobility 	minSpeed 	5.8568350729618e-14
scalar Floatingscenario.node[63].mobility 	maxSpeed 	22.219910423264
scalar Floatingscenario.node[63].mobility 	totalDistance 	2122.5051601356
scalar Floatingscenario.node[63].mobility 	totalCO2Emission 	536.310299488
scalar Floatingscenario.node[10].nic.phy80211p 	busyTime 	8.7129813418023e-05
scalar Floatingscenario.node[10].nic.mac1609_4 	ReceivedUnicastPackets 	0
scalar Floatingscenario.node[10].nic.mac1609_4 	ReceivedBroadcasts 	56
scalar Floatingscenario.node[10].nic.mac1609_4 	SentPackets 	10
scalar Floatingscenario.node[10].nic.mac1609_4 	SNIRLostPackets 	4
scalar Floatingscenario.node[10].nic.mac1609_4 	RXTXLostPackets 	0
scalar Floatingscenario.node[10].nic.mac1609_4 	TotalLostPackets 	4
scalar Floatingscenario.node[10].nic.mac1609_4 	DroppedPacketsInMac 	0
scalar Floatingscenario.node[10].nic.mac1609_4 	TooLittleTime 	0
scalar Floatingscenario.node[10].nic.mac1609_4 	TimesIntoBackoff 	11
scalar Floatingscenario.node[10].nic.mac1609_4 	SlotsBackoff 	38
scalar Floatingscenario.node[10].nic.mac1609_4 	NumInternalContention 	0
scalar Floatingscenario.node[10].nic.mac1609_4 	totalBusyTime 	0.0249114177
scalar Floatingscenario.node[10].mobility 	startTime 	10.1
scalar Floatingscenario.node[10].mobility 	totalTime 	251.8
scalar Floatingscenario.node[10].mobility 	stopTime 	262
scalar Floatingscenario.node[10].mobility 	minSpeed 	5.8544334616887e-14
scalar Floatingscenario.node[10].mobility 	maxSpeed 	27.779937864945
scalar Floatingscenario.node[10].mobility 	totalDistance 	2105.4477925169
scalar Floatingscenario.node[10].mobility 	totalCO2Emission 	717.50452845397
scalar Floatingscenario.node[112].nic.phy80211p 	busyTime 	0.00063935049019608
scalar Floatingscenario.node[112].nic.mac1609_4 	ReceivedUnicastPackets 	0
scalar Floatingscenario.node[112].nic.mac1609_4 	ReceivedBroadcasts 	175
scalar Floatingscenario.node[112].nic.mac1609_4 	SentPackets 	1
scalar Floatingscenario.node[112].nic.mac1609_4 	SNIRLostPackets 	103
scalar Floatingscenario.node[112].nic.mac1609_4 	RXTXLostPackets 	0
scalar Floatingscenario.node[112].nic.mac1609_4 	TotalLostPackets 	103
scalar Floatingscenario.node[112].nic.mac1609_4 	DroppedPacketsInMac 	0
scalar Floatingscenario.node[112].nic.mac1609_4 	TooLittleTime 	0
scalar Floatingscenario.node[112].nic.mac1609_4 	TimesIntoBackoff 	1
scalar Floatingscenario.node[112].nic.mac1609_4 	SlotsBackoff 	3
scalar Floatingscenario.node[112].nic.mac1609_4 	NumInternalContention 	0
scalar Floatingscenario.node[112].nic.mac1609_4 	totalBusyTime 	0.084355520013
scalar Floatingscenario.node[112].mobility 	startTime 	112.1
scalar Floatingscenario.node[112].mobility 	totalTime 	163.1
scalar Floatingscenario.node[112].mobility 	stopTime 	275.3
scalar Floatingscenario.node[112].mobility 	minSpeed 	2.3691921179778e-11
scalar Floatingscenario.node[112].mobility 	maxSpeed 	23.170036759581
scalar Floatingscenario.node[112].mobility 	totalDistance 	2092.0174021757
scalar Floatingscenario.node[112].mobility 	totalCO2Emission 	560.40504546594
scalar Floatingscenario.node[85].nic.phy80211p 	busyTime 	0.00061901076371092
scalar Floatingscenario.node[85].nic.mac1609_4 	ReceivedUnicastPackets 	0
scalar Floatingscenario.node[85].nic.mac1609_4 	ReceivedBroadcasts 	235
scalar Floatingscenario.node[85].nic.mac1609_4 	SentPackets 	15
scalar Floatingscenario.node[85].nic.mac1609_4 	SNIRLostPackets 	86
scalar Floatingscenario.node[85].nic.mac1609_4 	RXTXLostPackets 	11
scalar Floatingscenario.node[85].nic.mac1609_4 	TotalLostPackets 	97
scalar Floatingscenario.node[85].nic.mac1609_4 	DroppedPacketsInMac 	0
scalar Floatingscenario.node[85].nic.mac1609_4 	TooLittleTime 	0
scalar Floatingscenario.node[85].nic.mac1609_4 	TimesIntoBackoff 	26
scalar Floatingscenario.node[85].nic.mac1609_4 	SlotsBackoff 	85
scalar Floatingscenario.node[85].nic.mac1609_4 	NumInternalContention 	0
scalar Floatingscenario.node[85].nic.mac1609_4 	totalBusyTime 	0.110368382254
scalar Floatingscenario.node[85].mobility 	startTime 	85.1
scalar Floatingscenario.node[85].mobility 	totalTime 	195
scalar Floatingscenario.node[85].mobility 	stopTime 	280.2
scalar Floatingscenario.node[85].mobility 	minSpeed 	5.8538022855591e-14
scalar Floatingscenario.node[85].mobility 	maxSpeed 	22.2198083615
scalar Floatingscenario.node[85].mobility 	totalDistance 	1983.1400904011
scalar Floatingscenario.node[85].mobility 	totalCO2Emission 	538.78080906308
scalar Floatingscenario.node[7].nic.phy80211p 	busyTime 	0.00057771106259097
scalar Floatingscenario.node[7].nic.mac1609_4 	ReceivedUnicastPackets 	0
scalar Floatingscenario.node[7].nic.mac1609_4 	ReceivedBroadcasts 	297
scalar Floatingscenario.node[7].nic.mac1609_4 	SentPackets 	5
scalar Floatingscenario.node[7].nic.mac1609_4 	SNIRLostPackets 	122
scalar Floatingscenario.node[7].nic.mac1609_4 	RXTXLostPackets 	0
scalar Floatingscenario.node[7].nic.mac1609_4 	TotalLostPackets 	122
scalar Floatingscenario.node[7].nic.mac1609_4 	DroppedPacketsInMac 	0
scalar Floatingscenario.node[7].nic.mac1609_4 	TooLittleTime 	0
scalar Floatingscenario.node[7].nic.mac1609_4 	TimesIntoBackoff 	5
scalar Floatingscenario.node[7].nic.mac1609_4 	SlotsBackoff 	20
scalar Floatingscenario.node[7].nic.mac1609_4 	NumInternalContention 	0
scalar Floatingscenario.node[7].nic.mac1609_4 	totalBusyTime 	0.135522247082
scalar Floatingscenario.node[7].mobility 	startTime 	7.1
scalar Floatingscenario.node[7].mobility 	totalTime 	274.7
scalar Floatingscenario.node[7].mobility 	stopTime 	281.9
scalar Floatingscenario.node[7].mobility 	minSpeed 	1.1254264191807e-13
scalar Floatingscenario.node[7].mobility 	maxSpeed 	22.219547443429
scalar Floatingscenario.node[7].mobility 	totalDistance 	2719.8281225275
scalar Floatingscenario.node[7].mobility 	totalCO2Emission 	744.88528362123
scalar Floatingscenario.node[37].nic.phy80211p 	busyTime 	0.00048852101506741
scalar Floatingscenario.node[37].nic.mac1609_4 	ReceivedUnicastPackets 	0
scalar Floatingscenario.node[37].nic.mac1609_4 	ReceivedBroadcasts 	176
scalar Floatingscenario.node[37].nic.mac1609_4 	SentPackets 	2
scalar Floatingscenario.node[37].nic.mac1609_4 	SNIRLostPackets 	149
scalar Floatingscenario.node[37].nic.mac1609_4 	RXTXLostPackets 	0
scalar Floatingscenario.node[37].nic.mac1609_4 	TotalLostPackets 	149
scalar Floatingscenario.node[37].nic.mac1609_4 	DroppedPacketsInMac 	0
scalar Floatingscenario.node[37].nic.mac1609_4 	TooLittleTime 	0
scalar Floatingscenario.node[37].nic.mac1609_4 	TimesIntoBackoff 	2
scalar Floatingscenario.node[37].nic.mac1609_4 	SlotsBackoff 	6
scalar Floatingscenario.node[37].nic.mac1609_4 	NumInternalContention 	0
scalar Floatingscenario.node[37].nic.mac1609_4 	totalBusyTime 	0.091623324419
scalar Floatingscenario.node[37].mobility 	startTime 	37.1
scalar Floatingscenario.node[37].mobility 	totalTime 	252.1
scalar Floatingscenario.node[37].mobility 	stopTime 	289.3
scalar Floatingscenario.node[37].mobility 	minSpeed 	0
scalar Floatingscenario.node[37].mobility 	maxSpeed 	27.014232862117
scalar Floatingscenario.node[37].mobility 	totalDistance 	2949.4442097467
scalar Floatingscenario.node[37].mobility 	totalCO2Emission 	797.40368012301
scalar Floatingscenario.node[13].nic.phy80211p 	busyTime 	0.0010740233545648
scalar Floatingscenario.node[13].nic.mac1609_4 	ReceivedUnicastPackets 	0
scalar Floatingscenario.node[13].nic.mac1609_4 	ReceivedBroadcasts 	484
scalar Floatingscenario.node[13].nic.mac1609_4 	SentPackets 	0
scalar Floatingscenario.node[13].nic.mac1609_4 	SNIRLostPackets 	315
scalar Floatingscenario.node[13].nic.mac1609_4 	RXTXLostPackets 	0
scalar Floatingscenario.node[13].nic.mac1609_4 	TotalLostPackets 	315
scalar Floatingscenario.node[13].nic.mac1609_4 	DroppedPacketsInMac 	0
scalar Floatingscenario.node[13].nic.mac1609_4 	TooLittleTime 	0
scalar Floatingscenario.node[13].nic.mac1609_4 	TimesIntoBackoff 	0
scalar Floatingscenario.node[13].nic.mac1609_4 	SlotsBackoff 	0
scalar Floatingscenario.node[13].nic.mac1609_4 	NumInternalContention 	0
scalar Floatingscenario.node[13].nic.mac1609_4 	totalBusyTime 	0.235804703526
scalar Floatingscenario.node[13].mobility 	startTime 	13.1
scalar Floatingscenario.node[13].mobility 	totalTime 	282.5
scalar Floatingscenario.node[13].mobility 	stopTime 	295.7
scalar Floatingscenario.node[13].mobility 	minSpeed 	1.125395290997e-13
scalar Floatingscenario.node[13].mobility 	maxSpeed 	27.779770638815
scalar Floatingscenario.node[13].mobility 	totalDistance 	2032.6251565221
scalar Floatingscenario.node[13].mobility 	totalCO2Emission 	700.53337660398
scalar Floatingscenario.node[87].nic.phy80211p 	busyTime 	0.00079790052606408
scalar Floatingscenario.node[87].nic.mac1609_4 	ReceivedUnicastPackets 	0
scalar Floatingscenario.node[87].nic.mac1609_4 	ReceivedBroadcasts 	281
scalar Floatingscenario.node[87].nic.mac1609_4 	SentPackets 	16
scalar Floatingscenario.node[87].nic.mac1609_4 	SNIRLostPackets 	160
scalar Floatingscenario.node[87].nic.mac1609_4 	RXTXLostPackets 	0
scalar Floatingscenario.node[87].nic.mac1609_4 	TotalLostPackets 	160
scalar Floatingscenario.node[87].nic.mac1609_4 	DroppedPacketsInMac 	0
scalar Floatingscenario.node[87].nic.mac1609_4 	TooLittleTime 	0
scalar Floatingscenario.node[87].nic.mac1609_4 	TimesIntoBackoff 	16
scalar Floatingscenario.node[87].nic.mac1609_4 	SlotsBackoff 	61
scalar Floatingscenario.node[87].nic.mac1609_4 	NumInternalContention 	0
scalar Floatingscenario.node[87].nic.mac1609_4 	totalBusyTime 	0.138437884926
scalar Floatingscenario.node[87].mobility 	startTime 	87.1
scalar Floatingscenario.node[87].mobility 	totalTime 	209
scalar Floatingscenario.node[87].mobility 	stopTime 	296.2
scalar Floatingscenario.node[87].mobility 	minSpeed 	1.125490852184e-13
scalar Floatingscenario.node[87].mobility 	maxSpeed 	22.219768551656
scalar Floatingscenario.node[87].mobility 	totalDistance 	2175.787518934
scalar Floatingscenario.node[87].mobility 	totalCO2Emission 	555.80492468411
scalar Floatingscenario.node[171].nic.phy80211p 	busyTime 	0.00078085843373494
scalar Floatingscenario.node[171].nic.mac1609_4 	ReceivedUnicastPackets 	0
scalar Floatingscenario.node[171].nic.mac1609_4 	ReceivedBroadcasts 	182
scalar Floatingscenario.node[171].nic.mac1609_4 	SentPackets 	0
scalar Floatingscenario.node[171].nic.mac1609_4 	SNIRLostPackets 	92
scalar Floatingscenario.node[171].nic.mac1609_4 	RXTXLostPackets 	0
scalar Floatingscenario.node[171].nic.mac1609_4 	TotalLostPackets 	92
scalar Floatingscenario.node[171].nic.mac1609_4 	DroppedPacketsInMac 	0
scalar Floatingscenario.node[171].nic.mac1609_4 	TooLittleTime 	0
scalar Floatingscenario.node[171].nic.mac1609_4 	TimesIntoBackoff 	0
scalar Floatingscenario.node[171].nic.mac1609_4 	SlotsBackoff 	0
scalar Floatingscenario.node[171].nic.mac1609_4 	NumInternalContention 	0
scalar Floatingscenario.node[171].nic.mac1609_4 	totalBusyTime 	0.084458030886
scalar Floatingscenario.node[171].mobility 	startTime 	173.1
scalar Floatingscenario.node[171].mobility 	totalTime 	132.7
scalar Floatingscenario.node[171].mobility 	stopTime 	305.9
scalar Floatingscenario.node[171].mobility 	minSpeed 	1.3435998615293
scalar Floatingscenario.node[171].mobility 	maxSpeed 	22.212816818459
scalar Floatingscenario.node[171].mobility 	totalDistance 	1611.2298770606
scalar Floatingscenario.node[171].mobility 	totalCO2Emission 	441.44454383145
scalar Floatingscenario.node[135].nic.phy80211p 	busyTime 	0.00081134402654867
scalar Floatingscenario.node[135].nic.mac1609_4 	ReceivedUnicastPackets 	0
scalar Floatingscenario.node[135].nic.mac1609_4 	ReceivedBroadcasts 	269
scalar Floatingscenario.node[135].nic.mac1609_4 	SentPackets 	0
scalar Floatingscenario.node[135].nic.mac1609_4 	SNIRLostPackets 	118
scalar Floatingscenario.node[135].nic.mac1609_4 	RXTXLostPackets 	0
scalar Floatingscenario.node[135].nic.mac1609_4 	TotalLostPackets 	118
scalar Floatingscenario.node[135].nic.mac1609_4 	DroppedPacketsInMac 	0
scalar Floatingscenario.node[135].nic.mac1609_4 	TooLittleTime 	0
scalar Floatingscenario.node[135].nic.mac1609_4 	TimesIntoBackoff 	0
scalar Floatingscenario.node[135].nic.mac1609_4 	SlotsBackoff 	0
scalar Floatingscenario.node[135].nic.mac1609_4 	NumInternalContention 	0
scalar Floatingscenario.node[135].nic.mac1609_4 	totalBusyTime 	0.122137969582
scalar Floatingscenario.node[135].mobility 	startTime 	136.1
scalar Floatingscenario.node[135].mobility 	totalTime 	180.7
scalar Floatingscenario.node[135].mobility 	stopTime 	316.9
scalar Floatingscenario.node[135].mobility 	minSpeed 	1.1486639397983e-12
scalar Floatingscenario.node[135].mobility 	maxSpeed 	22.218769903635
scalar Floatingscenario.node[135].mobility 	totalDistance 	1831.1837755226
scalar Floatingscenario.node[135].mobility 	totalCO2Emission 	498.31225314553
scalar Floatingscenario.node[59].nic.phy80211p 	busyTime 	0.00044355083459787
scalar Floatingscenario.node[59].nic.mac1609_4 	ReceivedUnicastPackets 	0
scalar Floatingscenario.node[59].nic.mac1609_4 	ReceivedBroadcasts 	232
scalar Floatingscenario.node[59].nic.mac1609_4 	SentPackets 	15
scalar Floatingscenario.node[59].nic.mac1609_4 	SNIRLostPackets 	80
scalar Floatingscenario.node[59].nic.mac1609_4 	RXTXLostPackets 	5
scalar Floatingscenario.node[59].nic.mac1609_4 	TotalLostPackets 	85
scalar Floatingscenario.node[59].nic.mac1609_4 	DroppedPacketsInMac 	0
scalar Floatingscenario.node[59].nic.mac1609_4 	TooLittleTime 	0
scalar Floatingscenario.node[59].nic.mac1609_4 	TimesIntoBackoff 	29
scalar Floatingscenario.node[59].nic.mac1609_4 	SlotsBackoff 	67
scalar Floatingscenario.node[59].nic.mac1609_4 	NumInternalContention 	0
scalar Floatingscenario.node[59].nic.mac1609_4 	totalBusyTime 	0.107422078096
scalar Floatingscenario.node[59].mobility 	startTime 	59.1
scalar Floatingscenario.node[59].mobility 	totalTime 	263.5
scalar Floatingscenario.node[59].mobility 	stopTime 	322.7
scalar Floatingscenario.node[59].mobility 	minSpeed 	0
scalar Floatingscenario.node[59].mobility 	maxSpeed 	22.219534714138
scalar Floatingscenario.node[59].mobility 	totalDistance 	2240.5968135762
scalar Floatingscenario.node[59].mobility 	totalCO2Emission 	668.92636850251
scalar Floatingscenario.node[73].nic.phy80211p 	busyTime 	0.00014052814186584
scalar Floatingscenario.node[73].nic.mac1609_4 	ReceivedUnicastPackets 	0
scalar Floatingscenario.node[73].nic.mac1609_4 	ReceivedBroadcasts 	97
scalar Floatingscenario.node[73].nic.mac1609_4 	SentPackets 	7
scalar Floatingscenario.node[73].nic.mac1609_4 	SNIRLostPackets 	4
scalar Floatingscenario.node[73].nic.mac1609_4 	RXTXLostPackets 	0
scalar Floatingscenario.node[73].nic.mac1609_4 	TotalLostPackets 	4
scalar Floatingscenario.node[73].nic.mac1609_4 	DroppedPacketsInMac 	0
scalar Floatingscenario.node[73].nic.mac1609_4 	TooLittleTime 	0
scalar Floatingscenario.node[73].nic.mac1609_4 	TimesIntoBackoff 	7
scalar Floatingscenario.node[73].nic.mac1609_4 	SlotsBackoff 	24
scalar Floatingscenario.node[73].nic.mac1609_4 	NumInternalContention 	0
scalar Floatingscenario.node[73].nic.mac1609_4 	totalBusyTime 	0.038385016777
scalar Floatingscenario.node[73].mobility 	startTime 	73.1
scalar Floatingscenario.node[73].mobility 	totalTime 	259.3
scalar Floatingscenario.node[73].mobility 	stopTime 	332.5
scalar Floatingscenario.node[73].mobility 	minSpeed 	3.4820108056899e-15
scalar Floatingscenario.node[73].mobility 	maxSpeed 	27.774220782476
scalar Floatingscenario.node[73].mobility 	totalDistance 	2536.9417072703
scalar Floatingscenario.node[73].mobility 	totalCO2Emission 	831.16286727116
scalar Floatingscenario.node[58].nic.phy80211p 	busyTime 	0.00091625404821878
scalar Floatingscenario.node[58].nic.mac1609_4 	ReceivedUnicastPackets 	0
scalar Floatingscenario.node[58].nic.mac1609_4 	ReceivedBroadcasts 	518
scalar Floatingscenario.node[58].nic.mac1609_4 	SentPackets 	8
scalar Floatingscenario.node[58].nic.mac1609_4 	SNIRLostPackets 	157
scalar Floatingscenario.node[58].nic.mac1609_4 	RXTXLostPackets 	0
scalar Floatingscenario.node[58].nic.mac1609_4 	TotalLostPackets 	157
scalar Floatingscenario.node[58].nic.mac1609_4 	DroppedPacketsInMac 	0
scalar Floatingscenario.node[58].nic.mac1609_4 	TooLittleTime 	0
scalar Floatingscenario.node[58].nic.mac1609_4 	TimesIntoBackoff 	9
scalar Floatingscenario.node[58].nic.mac1609_4 	SlotsBackoff 	10
scalar Floatingscenario.node[58].nic.mac1609_4 	NumInternalContention 	0
scalar Floatingscenario.node[58].nic.mac1609_4 	totalBusyTime 	0.227257512863
scalar Floatingscenario.node[58].mobility 	startTime 	58.1
scalar Floatingscenario.node[58].mobility 	totalTime 	277.8
scalar Floatingscenario.node[58].mobility 	stopTime 	336
scalar Floatingscenario.node[58].mobility 	minSpeed 	7.912051154609e-15
scalar Floatingscenario.node[58].mobility 	maxSpeed 	27.779666525002
scalar Floatingscenario.node[58].mobility 	totalDistance 	2513.289307554
scalar Floatingscenario.node[58].mobility 	totalCO2Emission 	841.09903254056
scalar Floatingscenario.node[69].nic.phy80211p 	busyTime 	0.0012478443113773
scalar Floatingscenario.node[69].nic.mac1609_4 	ReceivedUnicastPackets 	0
scalar Floatingscenario.node[69].nic.mac1609_4 	ReceivedBroadcasts 	490
scalar Floatingscenario.node[69].nic.mac1609_4 	SentPackets 	1
scalar Floatingscenario.node[69].nic.mac1609_4 	SNIRLostPackets 	390
scalar Floatingscenario.node[69].nic.mac1609_4 	RXTXLostPackets 	0
scalar Floatingscenario.node[69].nic.mac1609_4 	TotalLostPackets 	390
scalar Floatingscenario.node[69].nic.mac1609_4 	DroppedPacketsInMac 	0
scalar Floatingscenario.node[69].nic.mac1609_4 	TooLittleTime 	0
scalar Floatingscenario.node[69].nic.mac1609_4 	TimesIntoBackoff 	1
scalar Floatingscenario.node[69].nic.mac1609_4 	SlotsBackoff 	0
scalar Floatingscenario.node[69].nic.mac1609_4 	NumInternalContention 	0
scalar Floatingscenario.node[69].nic.mac1609_4 	totalBusyTime 	0.247016238874
scalar Floatingscenario.node[69].mobility 	startTime 	69.1
scalar Floatingscenario.node[69].mobility 	totalTime 	267.1
scalar Floatingscenario.node[69].mobility 	stopTime 	336.3
scalar Floatingscenario.node[69].mobility 	minSpeed 	1.125526555781e-13
scalar Floatingscenario.node[69].mobility 	maxSpeed 	26.73636947711
scalar Floatingscenario.node[69].mobility 	totalDistance 	2307.7979319485
scalar Floatingscenario.node[69].mobility 	totalCO2Emission 	821.97358190662
scalar Floatingscenario.node[29].nic.phy80211p 	busyTime 	8.6854261548471e-05
scalar Floatingscenario.node[29].nic.mac1609_4 	ReceivedUnicastPackets 	0
scalar Floatingscenario.node[29].nic.mac1609_4 	ReceivedBroadcasts 	71
scalar Floatingscenario.node[29].nic.mac1609_4 	SentPackets 	1
scalar Floatingscenario.node[29].nic.mac1609_4 	SNIRLostPackets 	4
scalar Floatingscenario.node[29].nic.mac1609_4 	RXTXLostPackets 	0
scalar Floatingscenario.node[29].nic.mac1609_4 	TotalLostPackets 	4
scalar Floatingscenario.node[29].nic.mac1609_4 	DroppedPacketsInMac 	0
scalar Floatingscenario.node[29].nic.mac1609_4 	TooLittleTime 	0
scalar Floatingscenario.node[29].nic.mac1609_4 	TimesIntoBackoff 	1
scalar Floatingscenario.node[29].nic.mac1609_4 	SlotsBackoff 	0
scalar Floatingscenario.node[29].nic.mac1609_4 	NumInternalContention 	0
scalar Floatingscenario.node[29].nic.mac1609_4 	totalBusyTime 	0.026435981236
scalar Floatingscenario.node[29].mobility 	startTime 	29.1
scalar Floatingscenario.node[29].mobility 	totalTime 	307.3
scalar Floatingscenario.node[29].mobility 	stopTime 	336.5
scalar Floatingscenario.node[29].mobility 	minSpeed 	7.9125953007712e-15
scalar Floatingscenario.node[29].mobility 	maxSpeed 	27.779416507462
scalar Floatingscenario.node[29].mobility 	totalDistance 	2903.1332092552
scalar Floatingscenario.node[29].mobility 	totalCO2Emission 	915.69652072574
scalar Floatingscenario.node[27].nic.phy80211p 	busyTime 	0.0020243482338231
scalar Floatingscenario.node[27].nic.mac1609_4 	ReceivedUnicastPackets 	0
scalar Floatingscenario.node[27].nic.mac1609_4 	ReceivedBroadcasts 	813
scalar Floatingscenario.node[27].nic.mac1609_4 	SentPackets 	42
scalar Floatingscenario.node[27].nic.mac1609_4 	SNIRLostPackets 	888
scalar Floatingscenario.node[27].nic.mac1609_4 	RXTXLostPackets 	37
scalar Floatingscenario.node[27].nic.mac1609_4 	TotalLostPackets 	925
scalar Floatingscenario.node[27].nic.mac1609_4 	DroppedPacketsInMac 	0
scalar Floatingscenario.node[27].nic.mac1609_4 	TooLittleTime 	0
scalar Floatingscenario.node[27].nic.mac1609_4 	TimesIntoBackoff 	65
scalar Floatingscenario.node[27].nic.mac1609_4 	SlotsBackoff 	258
scalar Floatingscenario.node[27].nic.mac1609_4 	NumInternalContention 	0
scalar Floatingscenario.node[27].nic.mac1609_4 	totalBusyTime 	0.43914599982
scalar Floatingscenario.node[27].mobility 	startTime 	27.1
scalar Floatingscenario.node[27].mobility 	totalTime 	319.8
scalar Floatingscenario.node[27].mobility 	stopTime 	347
scalar Floatingscenario.node[27].mobility 	minSpeed 	5.8539711487408e-14
scalar Floatingscenario.node[27].mobility 	maxSpeed 	24.966851079064
scalar Floatingscenario.node[27].mobility 	totalDistance 	2274.3376131808
scalar Floatingscenario.node[27].mobility 	totalCO2Emission 	810.10321285701
scalar Floatingscenario.node[119].nic.phy80211p 	busyTime 	0.0010006039982986
scalar Floatingscenario.node[119].nic.mac1609_4 	ReceivedUnicastPackets 	0
scalar Floatingscenario.node[119].nic.mac1609_4 	ReceivedBroadcasts 	350
scalar Floatingscenario.node[119].nic.mac1609_4 	SentPackets 	1
scalar Floatingscenario.node[119].nic.mac1609_4 	SNIRLostPackets 	268
scalar Floatingscenario.node[119].nic.mac1609_4 	RXTXLostPackets 	0
scalar Floatingscenario.node[119].nic.mac1609_4 	TotalLostPackets 	268
scalar Floatingscenario.node[119].nic.mac1609_4 	DroppedPacketsInMac 	0
scalar Floatingscenario.node[119].nic.mac1609_4 	TooLittleTime 	0
scalar Floatingscenario.node[119].nic.mac1609_4 	TimesIntoBackoff 	1
scalar Floatingscenario.node[119].nic.mac1609_4 	SlotsBackoff 	0
scalar Floatingscenario.node[119].nic.mac1609_4 	NumInternalContention 	0
scalar Floatingscenario.node[119].nic.mac1609_4 	totalBusyTime 	0.177031641299
scalar Floatingscenario.node[119].mobility 	startTime 	120.1
scalar Floatingscenario.node[119].mobility 	totalTime 	235
scalar Floatingscenario.node[119].mobility 	stopTime 	355.2
scalar Floatingscenario.node[119].mobility 	minSpeed 	5.8549992428594e-14
scalar Floatingscenario.node[119].mobility 	maxSpeed 	22.202630538866
scalar Floatingscenario.node[119].mobility 	totalDistance 	2005.4634260135
scalar Floatingscenario.node[119].mobility 	totalCO2Emission 	602.52647833997
scalar Floatingscenario.node[201].nic.phy80211p 	busyTime 	0.0013734025974026
scalar Floatingscenario.node[201].nic.mac1609_4 	ReceivedUnicastPackets 	0
scalar Floatingscenario.node[201].nic.mac1609_4 	ReceivedBroadcasts 	270
scalar Floatingscenario.node[201].nic.mac1609_4 	SentPackets 	0
scalar Floatingscenario.node[201].nic.mac1609_4 	SNIRLostPackets 	290
scalar Floatingscenario.node[201].nic.mac1609_4 	RXTXLostPackets 	0
scalar Floatingscenario.node[201].nic.mac1609_4 	TotalLostPackets 	290
scalar Floatingscenario.node[201].nic.mac1609_4 	DroppedPacketsInMac 	0
scalar Floatingscenario.node[201].nic.mac1609_4 	TooLittleTime 	0
scalar Floatingscenario.node[201].nic.mac1609_4 	TimesIntoBackoff 	0
scalar Floatingscenario.node[201].nic.mac1609_4 	SlotsBackoff 	0
scalar Floatingscenario.node[201].nic.mac1609_4 	NumInternalContention 	0
scalar Floatingscenario.node[201].nic.mac1609_4 	totalBusyTime 	0.145722037394
scalar Floatingscenario.node[201].mobility 	startTime 	203.1
scalar Floatingscenario.node[201].mobility 	totalTime 	153.9
scalar Floatingscenario.node[201].mobility 	stopTime 	357.1
scalar Floatingscenario.node[201].mobility 	minSpeed 	0.0024457797658159
scalar Floatingscenario.node[201].mobility 	maxSpeed 	22.219658792592
scalar Floatingscenario.node[201].mobility 	totalDistance 	1816.8405110904
scalar Floatingscenario.node[201].mobility 	totalCO2Emission 	466.03406153926
scalar Floatingscenario.node[51].nic.phy80211p 	busyTime 	0.00068715475809035
scalar Floatingscenario.node[51].nic.mac1609_4 	ReceivedUnicastPackets 	0
scalar Floatingscenario.node[51].nic.mac1609_4 	ReceivedBroadcasts 	487
scalar Floatingscenario.node[51].nic.mac1609_4 	SentPackets 	34
scalar Floatingscenario.node[51].nic.mac1609_4 	SNIRLostPackets 	86
scalar Floatingscenario.node[51].nic.mac1609_4 	RXTXLostPackets 	3
scalar Floatingscenario.node[51].nic.mac1609_4 	TotalLostPackets 	89
scalar Floatingscenario.node[51].nic.mac1609_4 	DroppedPacketsInMac 	0
scalar Floatingscenario.node[51].nic.mac1609_4 	TooLittleTime 	0
scalar Floatingscenario.node[51].nic.mac1609_4 	TimesIntoBackoff 	47
scalar Floatingscenario.node[51].nic.mac1609_4 	SlotsBackoff 	159
scalar Floatingscenario.node[51].nic.mac1609_4 	NumInternalContention 	0
scalar Floatingscenario.node[51].nic.mac1609_4 	totalBusyTime 	0.210367829418
scalar Floatingscenario.node[51].mobility 	startTime 	51.1
scalar Floatingscenario.node[51].mobility 	totalTime 	312
scalar Floatingscenario.node[51].mobility 	stopTime 	363.2
scalar Floatingscenario.node[51].mobility 	minSpeed 	5.8538561236734e-14
scalar Floatingscenario.node[51].mobility 	maxSpeed 	27.779798230503
scalar Floatingscenario.node[51].mobility 	totalDistance 	2345.0910401115
scalar Floatingscenario.node[51].mobility 	totalCO2Emission 	841.52680898524
scalar Floatingscenario.node[100].nic.phy80211p 	busyTime 	0.0025066981132075
scalar Floatingscenario.node[100].nic.mac1609_4 	ReceivedUnicastPackets 	0
scalar Floatingscenario.node[100].nic.mac1609_4 	ReceivedBroadcasts 	742
scalar Floatingscenario.node[100].nic.mac1609_4 	SentPackets 	34
scalar Floatingscenario.node[100].nic.mac1609_4 	SNIRLostPackets 	1005
scalar Floatingscenario.node[100].nic.mac1609_4 	RXTXLostPackets 	49
scalar Floatingscenario.node[100].nic.mac1609_4 	TotalLostPackets 	1054
scalar Floatingscenario.node[100].nic.mac1609_4 	DroppedPacketsInMac 	0
scalar Floatingscenario.node[100].nic.mac1609_4 	TooLittleTime 	0
scalar Floatingscenario.node[100].nic.mac1609_4 	TimesIntoBackoff 	59
scalar Floatingscenario.node[100].nic.mac1609_4 	SlotsBackoff 	224
scalar Floatingscenario.node[100].nic.mac1609_4 	NumInternalContention 	0
scalar Floatingscenario.node[100].nic.mac1609_4 	totalBusyTime 	0.433817855186
scalar Floatingscenario.node[100].mobility 	startTime 	100.1
scalar Floatingscenario.node[100].mobility 	totalTime 	264.9
scalar Floatingscenario.node[100].mobility 	stopTime 	365.1
scalar Floatingscenario.node[100].mobility 	minSpeed 	5.8541343818083e-14
scalar Floatingscenario.node[100].mobility 	maxSpeed 	22.216953487792
scalar Floatingscenario.node[100].mobility 	totalDistance 	2055.3339659653
scalar Floatingscenario.node[100].mobility 	totalCO2Emission 	729.35117289002
scalar Floatingscenario.node[194].nic.phy80211p 	busyTime 	0.00010783314020857
scalar Floatingscenario.node[194].nic.mac1609_4 	ReceivedUnicastPackets 	0
scalar Floatingscenario.node[194].nic.mac1609_4 	ReceivedBroadcasts 	48
scalar Floatingscenario.node[194].nic.mac1609_4 	SentPackets 	0
scalar Floatingscenario.node[194].nic.mac1609_4 	SNIRLostPackets 	4
scalar Floatingscenario.node[194].nic.mac1609_4 	RXTXLostPackets 	0
scalar Floatingscenario.node[194].nic.mac1609_4 	TotalLostPackets 	4
scalar Floatingscenario.node[194].nic.mac1609_4 	DroppedPacketsInMac 	0
scalar Floatingscenario.node[194].nic.mac1609_4 	TooLittleTime 	0
scalar Floatingscenario.node[194].nic.mac1609_4 	TimesIntoBackoff 	0
scalar Floatingscenario.node[194].nic.mac1609_4 	SlotsBackoff 	0
scalar Floatingscenario.node[194].nic.mac1609_4 	NumInternalContention 	0
scalar Floatingscenario.node[194].nic.mac1609_4 	totalBusyTime 	0.017985996657
scalar Floatingscenario.node[194].mobility 	startTime 	195.1
scalar Floatingscenario.node[194].mobility 	totalTime 	172.5
scalar Floatingscenario.node[194].mobility 	stopTime 	367.7
scalar Floatingscenario.node[194].mobility 	minSpeed 	6.7145890396223e-13
scalar Floatingscenario.node[194].mobility 	maxSpeed 	27.645576170503
scalar Floatingscenario.node[194].mobility 	totalDistance 	1978.41510338
scalar Floatingscenario.node[194].mobility 	totalCO2Emission 	630.6584322249
scalar Floatingscenario.node[151].nic.phy80211p 	busyTime 	0.00081691601652134
scalar Floatingscenario.node[151].nic.mac1609_4 	ReceivedUnicastPackets 	0
scalar Floatingscenario.node[151].nic.mac1609_4 	ReceivedBroadcasts 	265
scalar Floatingscenario.node[151].nic.mac1609_4 	SentPackets 	1
scalar Floatingscenario.node[151].nic.mac1609_4 	SNIRLostPackets 	205
scalar Floatingscenario.node[151].nic.mac1609_4 	RXTXLostPackets 	0
scalar Floatingscenario.node[151].nic.mac1609_4 	TotalLostPackets 	205
scalar Floatingscenario.node[151].nic.mac1609_4 	DroppedPacketsInMac 	0
scalar Floatingscenario.node[151].nic.mac1609_4 	TooLittleTime 	0
scalar Floatingscenario.node[151].nic.mac1609_4 	TimesIntoBackoff 	1
scalar Floatingscenario.node[151].nic.mac1609_4 	SlotsBackoff 	3
scalar Floatingscenario.node[151].nic.mac1609_4 	NumInternalContention 	0
scalar Floatingscenario.node[151].nic.mac1609_4 	totalBusyTime 	0.133452917977
scalar Floatingscenario.node[151].mobility 	startTime 	152.1
scalar Floatingscenario.node[151].mobility 	totalTime 	217.8
scalar Floatingscenario.node[151].mobility 	stopTime 	370
scalar Floatingscenario.node[151].mobility 	minSpeed 	0.0001458364087869
scalar Floatingscenario.node[151].mobility 	maxSpeed 	27.759289474259
scalar Floatingscenario.node[151].mobility 	totalDistance 	2889.8411981505
scalar Floatingscenario.node[151].mobility 	totalCO2Emission 	790.70214673583
scalar Floatingscenario.node[11].nic.phy80211p 	busyTime 	0.0015964895947426
scalar Floatingscenario.node[11].nic.mac1609_4 	ReceivedUnicastPackets 	0
scalar Floatingscenario.node[11].nic.mac1609_4 	ReceivedBroadcasts 	780
scalar Floatingscenario.node[11].nic.mac1609_4 	SentPackets 	59
scalar Floatingscenario.node[11].nic.mac1609_4 	SNIRLostPackets 	754
scalar Floatingscenario.node[11].nic.mac1609_4 	RXTXLostPackets 	64
scalar Floatingscenario.node[11].nic.mac1609_4 	TotalLostPackets 	818
scalar Floatingscenario.node[11].nic.mac1609_4 	DroppedPacketsInMac 	0
scalar Floatingscenario.node[11].nic.mac1609_4 	TooLittleTime 	0
scalar Floatingscenario.node[11].nic.mac1609_4 	TimesIntoBackoff 	107
scalar Floatingscenario.node[11].nic.mac1609_4 	SlotsBackoff 	400
scalar Floatingscenario.node[11].nic.mac1609_4 	NumInternalContention 	0
scalar Floatingscenario.node[11].nic.mac1609_4 	totalBusyTime 	0.416018516254
scalar Floatingscenario.node[11].mobility 	startTime 	11.1
scalar Floatingscenario.node[11].mobility 	totalTime 	365.1
scalar Floatingscenario.node[11].mobility 	stopTime 	376.3
scalar Floatingscenario.node[11].mobility 	minSpeed 	5.8541388420277e-14
scalar Floatingscenario.node[11].mobility 	maxSpeed 	26.171706335485
scalar Floatingscenario.node[11].mobility 	totalDistance 	2286.4754585061
scalar Floatingscenario.node[11].mobility 	totalCO2Emission 	907.63427812766
scalar Floatingscenario.node[47].nic.phy80211p 	busyTime 	0.0019077955851225
scalar Floatingscenario.node[47].nic.mac1609_4 	ReceivedUnicastPackets 	0
scalar Floatingscenario.node[47].nic.mac1609_4 	ReceivedBroadcasts 	774
scalar Floatingscenario.node[47].nic.mac1609_4 	SentPackets 	1
scalar Floatingscenario.node[47].nic.mac1609_4 	SNIRLostPackets 	886
scalar Floatingscenario.node[47].nic.mac1609_4 	RXTXLostPackets 	0
scalar Floatingscenario.node[47].nic.mac1609_4 	TotalLostPackets 	886
scalar Floatingscenario.node[47].nic.mac1609_4 	DroppedPacketsInMac 	0
scalar Floatingscenario.node[47].nic.mac1609_4 	TooLittleTime 	0
scalar Floatingscenario.node[47].nic.mac1609_4 	TimesIntoBackoff 	1
scalar Floatingscenario.node[47].nic.mac1609_4 	SlotsBackoff 	3
scalar Floatingscenario.node[47].nic.mac1609_4 	NumInternalContention 	0
scalar Floatingscenario.node[47].nic.mac1609_4 	totalBusyTime 	0.404418702868
scalar Floatingscenario.node[47].mobility 	startTime 	47.1
scalar Floatingscenario.node[47].mobility 	totalTime 	330.6
scalar Floatingscenario.node[47].mobility 	stopTime 	377.8
scalar Floatingscenario.node[47].mobility 	minSpeed 	5.8629354028025e-14
scalar Floatingscenario.node[47].mobility 	maxSpeed 	27.773681995145
scalar Floatingscenario.node[47].mobility 	totalDistance 	3226.2684887949
scalar Floatingscenario.node[47].mobility 	totalCO2Emission 	1081.7046828646
scalar Floatingscenario.node[1].nic.phy80211p 	busyTime 	8.5930962343096e-05
scalar Floatingscenario.node[1].nic.mac1609_4 	ReceivedUnicastPackets 	0
scalar Floatingscenario.node[1].nic.mac1609_4 	ReceivedBroadcasts 	90
scalar Floatingscenario.node[1].nic.mac1609_4 	SentPackets 	4
scalar Floatingscenario.node[1].nic.mac1609_4 	SNIRLostPackets 	2
scalar Floatingscenario.node[1].nic.mac1609_4 	RXTXLostPackets 	2
scalar Floatingscenario.node[1].nic.mac1609_4 	TotalLostPackets 	4
scalar Floatingscenario.node[1].nic.mac1609_4 	DroppedPacketsInMac 	0
scalar Floatingscenario.node[1].nic.mac1609_4 	TooLittleTime 	0
scalar Floatingscenario.node[1].nic.mac1609_4 	TimesIntoBackoff 	7
scalar Floatingscenario.node[1].nic.mac1609_4 	SlotsBackoff 	9
scalar Floatingscenario.node[1].nic.mac1609_4 	NumInternalContention 	0
scalar Floatingscenario.node[1].nic.mac1609_4 	totalBusyTime 	0.033892292935
scalar Floatingscenario.node[1].mobility 	startTime 	1.1
scalar Floatingscenario.node[1].mobility 	totalTime 	382.3
scalar Floatingscenario.node[1].mobility 	stopTime 	383.5
scalar Floatingscenario.node[1].mobility 	minSpeed 	0
scalar Floatingscenario.node[1].mobility 	maxSpeed 	27.779942976178
scalar Floatingscenario.node[1].mobility 	totalDistance 	2074.7641942935
scalar Floatingscenario.node[1].mobility 	totalCO2Emission 	955.74072522556
scalar Floatingscenario.node[40].nic.phy80211p 	busyTime 	0.0023003637413395
scalar Floatingscenario.node[40].nic.mac1609_4 	ReceivedUnicastPackets 	0
scalar Floatingscenario.node[40].nic.mac1609_4 	ReceivedBroadcasts 	904
scalar Floatingscenario.node[40].nic.mac1609_4 	SentPackets 	26
scalar Floatingscenario.node[40].nic.mac1609_4 	SNIRLostPackets 	1190
scalar Floatingscenario.node[40].nic.mac1609_4 	RXTXLostPackets 	8
scalar Floatingscenario.node[40].nic.mac1609_4 	TotalLostPackets 	1198
scalar Floatingscenario.node[40].nic.mac1609_4 	DroppedPacketsInMac 	0
scalar Floatingscenario.node[40].nic.mac1609_4 	TooLittleTime 	0
scalar Floatingscenario.node[40].nic.mac1609_4 	TimesIntoBackoff 	39
scalar Floatingscenario.node[40].nic.mac1609_4 	SlotsBackoff 	117
scalar Floatingscenario.node[40].nic.mac1609_4 	NumInternalContention 	0
scalar Floatingscenario.node[40].nic.mac1609_4 	totalBusyTime 	0.522107704568
scalar Floatingscenario.node[40].mobility 	startTime 	40.1
scalar Floatingscenario.node[40].mobility 	totalTime 	346.3
scalar Floatingscenario.node[40].mobility 	stopTime 	386.5
scalar Floatingscenario.node[40].mobility 	minSpeed 	5.8542990554195e-14
scalar Floatingscenario.node[40].mobility 	maxSpeed 	27.779228191599
scalar Floatingscenario.node[40].mobility 	totalDistance 	2574.816569309
scalar Floatingscenario.node[40].mobility 	totalCO2Emission 	906.4167022297
scalar Floatingscenario.node[19].nic.phy80211p 	busyTime 	0.0017652555736813
scalar Floatingscenario.node[19].nic.mac1609_4 	ReceivedUnicastPackets 	0
scalar Floatingscenario.node[19].nic.mac1609_4 	ReceivedBroadcasts 	859
scalar Floatingscenario.node[19].nic.mac1609_4 	SentPackets 	37
scalar Floatingscenario.node[19].nic.mac1609_4 	SNIRLostPackets 	850
scalar Floatingscenario.node[19].nic.mac1609_4 	RXTXLostPackets 	16
scalar Floatingscenario.node[19].nic.mac1609_4 	TotalLostPackets 	866
scalar Floatingscenario.node[19].nic.mac1609_4 	DroppedPacketsInMac 	0
scalar Floatingscenario.node[19].nic.mac1609_4 	TooLittleTime 	0
scalar Floatingscenario.node[19].nic.mac1609_4 	TimesIntoBackoff 	62
scalar Floatingscenario.node[19].nic.mac1609_4 	SlotsBackoff 	227
scalar Floatingscenario.node[19].nic.mac1609_4 	NumInternalContention 	0
scalar Floatingscenario.node[19].nic.mac1609_4 	totalBusyTime 	0.445650931037
scalar Floatingscenario.node[19].mobility 	startTime 	19.1
scalar Floatingscenario.node[19].mobility 	totalTime 	367.7
scalar Floatingscenario.node[19].mobility 	stopTime 	386.9
scalar Floatingscenario.node[19].mobility 	minSpeed 	3.1683563623111e-14
scalar Floatingscenario.node[19].mobility 	maxSpeed 	27.779419603059
scalar Floatingscenario.node[19].mobility 	totalDistance 	2366.3007716754
scalar Floatingscenario.node[19].mobility 	totalCO2Emission 	935.01245170537
scalar Floatingscenario.node[122].nic.phy80211p 	busyTime 	0.0003019284660767
scalar Floatingscenario.node[122].nic.mac1609_4 	ReceivedUnicastPackets 	0
scalar Floatingscenario.node[122].nic.mac1609_4 	ReceivedBroadcasts 	168
scalar Floatingscenario.node[122].nic.mac1609_4 	SentPackets 	1
scalar Floatingscenario.node[122].nic.mac1609_4 	SNIRLostPackets 	51
scalar Floatingscenario.node[122].nic.mac1609_4 	RXTXLostPackets 	0
scalar Floatingscenario.node[122].nic.mac1609_4 	TotalLostPackets 	51
scalar Floatingscenario.node[122].nic.mac1609_4 	DroppedPacketsInMac 	0
scalar Floatingscenario.node[122].nic.mac1609_4 	TooLittleTime 	0
scalar Floatingscenario.node[122].nic.mac1609_4 	TimesIntoBackoff 	1
scalar Floatingscenario.node[122].nic.mac1609_4 	SlotsBackoff 	3
scalar Floatingscenario.node[122].nic.mac1609_4 	NumInternalContention 	0
scalar Floatingscenario.node[122].nic.mac1609_4 	totalBusyTime 	0.070680125369
scalar Floatingscenario.node[122].mobility 	startTime 	123.1
scalar Floatingscenario.node[122].mobility 	totalTime 	271.1
scalar Floatingscenario.node[122].mobility 	stopTime 	394.3
scalar Floatingscenario.node[122].mobility 	minSpeed 	5.8542302373582e-14
scalar Floatingscenario.node[122].mobility 	maxSpeed 	22.219592555317
scalar Floatingscenario.node[122].mobility 	totalDistance 	2720.4531843389
scalar Floatingscenario.node[122].mobility 	totalCO2Emission 	821.46141770349
scalar Floatingscenario.node[105].nic.phy80211p 	busyTime 	0.0024041778235496
scalar Floatingscenario.node[105].nic.mac1609_4 	ReceivedUnicastPackets 	0
scalar Floatingscenario.node[105].nic.mac1609_4 	ReceivedBroadcasts 	764
scalar Floatingscenario.node[105].nic.mac1609_4 	SentPackets 	1
scalar Floatingscenario.node[105].nic.mac1609_4 	SNIRLostPackets 	1077
scalar Floatingscenario.node[105].nic.mac1609_4 	RXTXLostPackets 	0
scalar Floatingscenario.node[105].nic.mac1609_4 	TotalLostPackets 	1077
scalar Floatingscenario.node[105].nic.mac1609_4 	DroppedPacketsInMac 	0
scalar Floatingscenario.node[105].nic.mac1609_4 	TooLittleTime 	0
scalar Floatingscenario.node[105].nic.mac1609_4 	TimesIntoBackoff 	1
scalar Floatingscenario.node[105].nic.mac1609_4 	SlotsBackoff 	1
scalar Floatingscenario.node[105].nic.mac1609_4 	NumInternalContention 	0
scalar Floatingscenario.node[105].nic.mac1609_4 	totalBusyTime 	0.435958543605
scalar Floatingscenario.node[105].mobility 	startTime 	105.1
scalar Floatingscenario.node[105].mobility 	totalTime 	291.2
scalar Floatingscenario.node[105].mobility 	stopTime 	396.4
scalar Floatingscenario.node[105].mobility 	minSpeed 	5.8537384807791e-14
scalar Floatingscenario.node[105].mobility 	maxSpeed 	22.219808024042
scalar Floatingscenario.node[105].mobility 	totalDistance 	2502.0893269687
scalar Floatingscenario.node[105].mobility 	totalCO2Emission 	807.3264732287
scalar Floatingscenario.node[16].nic.phy80211p 	busyTime 	0.001916459515214
scalar Floatingscenario.node[16].nic.mac1609_4 	ReceivedUnicastPackets 	0
scalar Floatingscenario.node[16].nic.mac1609_4 	ReceivedBroadcasts 	846
scalar Floatingscenario.node[16].nic.mac1609_4 	SentPackets 	10
scalar Floatingscenario.node[16].nic.mac1609_4 	SNIRLostPackets 	1109
scalar Floatingscenario.node[16].nic.mac1609_4 	RXTXLostPackets 	3
scalar Floatingscenario.node[16].nic.mac1609_4 	TotalLostPackets 	1112
scalar Floatingscenario.node[16].nic.mac1609_4 	DroppedPacketsInMac 	0
scalar Floatingscenario.node[16].nic.mac1609_4 	TooLittleTime 	0
scalar Floatingscenario.node[16].nic.mac1609_4 	TimesIntoBackoff 	17
scalar Floatingscenario.node[16].nic.mac1609_4 	SlotsBackoff 	54
scalar Floatingscenario.node[16].nic.mac1609_4 	NumInternalContention 	0
scalar Floatingscenario.node[16].nic.mac1609_4 	totalBusyTime 	0.475124832592
scalar Floatingscenario.node[16].mobility 	startTime 	16.1
scalar Floatingscenario.node[16].mobility 	totalTime 	387.7
scalar Floatingscenario.node[16].mobility 	stopTime 	403.9
scalar Floatingscenario.node[16].mobility 	minSpeed 	0
scalar Floatingscenario.node[16].mobility 	maxSpeed 	22.218938840088
scalar Floatingscenario.node[16].mobility 	totalDistance 	2935.3059528875
scalar Floatingscenario.node[16].mobility 	totalCO2Emission 	958.55013728721
scalar Floatingscenario.node[93].nic.phy80211p 	busyTime 	0.0021042233632863
scalar Floatingscenario.node[93].nic.mac1609_4 	ReceivedUnicastPackets 	0
scalar Floatingscenario.node[93].nic.mac1609_4 	ReceivedBroadcasts 	751
scalar Floatingscenario.node[93].nic.mac1609_4 	SentPackets 	19
scalar Floatingscenario.node[93].nic.mac1609_4 	SNIRLostPackets 	973
scalar Floatingscenario.node[93].nic.mac1609_4 	RXTXLostPackets 	8
scalar Floatingscenario.node[93].nic.mac1609_4 	TotalLostPackets 	981
scalar Floatingscenario.node[93].nic.mac1609_4 	DroppedPacketsInMac 	0
scalar Floatingscenario.node[93].nic.mac1609_4 	TooLittleTime 	0
scalar Floatingscenario.node[93].nic.mac1609_4 	TimesIntoBackoff 	27
scalar Floatingscenario.node[93].nic.mac1609_4 	SlotsBackoff 	83
scalar Floatingscenario.node[93].nic.mac1609_4 	NumInternalContention 	0
scalar Floatingscenario.node[93].nic.mac1609_4 	totalBusyTime 	0.418062254538
scalar Floatingscenario.node[93].mobility 	startTime 	93.1
scalar Floatingscenario.node[93].mobility 	totalTime 	311.5
scalar Floatingscenario.node[93].mobility 	stopTime 	404.7
scalar Floatingscenario.node[93].mobility 	minSpeed 	5.855514127259e-14
scalar Floatingscenario.node[93].mobility 	maxSpeed 	27.779047975631
scalar Floatingscenario.node[93].mobility 	totalDistance 	3448.1443580662
scalar Floatingscenario.node[93].mobility 	totalCO2Emission 	1044.9438850291
scalar Floatingscenario.node[142].nic.phy80211p 	busyTime 	0.0035619748858447
scalar Floatingscenario.node[142].nic.mac1609_4 	ReceivedUnicastPackets 	0
scalar Floatingscenario.node[142].nic.mac1609_4 	ReceivedBroadcasts 	956
scalar Floatingscenario.node[142].nic.mac1609_4 	SentPackets 	62
scalar Floatingscenario.node[142].nic.mac1609_4 	SNIRLostPackets 	1499
scalar Floatingscenario.node[142].nic.mac1609_4 	RXTXLostPackets 	28
scalar Floatingscenario.node[142].nic.mac1609_4 	TotalLostPackets 	1527
scalar Floatingscenario.node[142].nic.mac1609_4 	DroppedPacketsInMac 	0
scalar Floatingscenario.node[142].nic.mac1609_4 	TooLittleTime 	0
scalar Floatingscenario.node[142].nic.mac1609_4 	TimesIntoBackoff 	79
scalar Floatingscenario.node[142].nic.mac1609_4 	SlotsBackoff 	293
scalar Floatingscenario.node[142].nic.mac1609_4 	NumInternalContention 	0
scalar Floatingscenario.node[142].nic.mac1609_4 	totalBusyTime 	0.592700317888
scalar Floatingscenario.node[142].mobility 	startTime 	143.1
scalar Floatingscenario.node[142].mobility 	totalTime 	262.7
scalar Floatingscenario.node[142].mobility 	stopTime 	405.9
scalar Floatingscenario.node[142].mobility 	minSpeed 	1.1257569260857e-13
scalar Floatingscenario.node[142].mobility 	maxSpeed 	27.779989696173
scalar Floatingscenario.node[142].mobility 	totalDistance 	2452.3591569036
scalar Floatingscenario.node[142].mobility 	totalCO2Emission 	674.62051648886
scalar Floatingscenario.node[32].nic.phy80211p 	busyTime 	0.0016308430851064
scalar Floatingscenario.node[32].nic.mac1609_4 	ReceivedUnicastPackets 	0
scalar Floatingscenario.node[32].nic.mac1609_4 	ReceivedBroadcasts 	797
scalar Floatingscenario.node[32].nic.mac1609_4 	SentPackets 	38
scalar Floatingscenario.node[32].nic.mac1609_4 	SNIRLostPackets 	816
scalar Floatingscenario.node[32].nic.mac1609_4 	RXTXLostPackets 	40
scalar Floatingscenario.node[32].nic.mac1609_4 	TotalLostPackets 	856
scalar Floatingscenario.node[32].nic.mac1609_4 	DroppedPacketsInMac 	0
scalar Floatingscenario.node[32].nic.mac1609_4 	TooLittleTime 	0
scalar Floatingscenario.node[32].nic.mac1609_4 	TimesIntoBackoff 	65
scalar Floatingscenario.node[32].nic.mac1609_4 	SlotsBackoff 	254
scalar Floatingscenario.node[32].nic.mac1609_4 	NumInternalContention 	0
scalar Floatingscenario.node[32].nic.mac1609_4 	totalBusyTime 	21.237410831539
scalar Floatingscenario.node[32].mobility 	startTime 	32.1
scalar Floatingscenario.node[32].mobility 	totalTime 	375.9
scalar Floatingscenario.node[32].mobility 	stopTime 	408.1
scalar Floatingscenario.node[32].mobility 	minSpeed 	5.8540217360554e-14
scalar Floatingscenario.node[32].mobility 	maxSpeed 	27.779988189645
scalar Floatingscenario.node[32].mobility 	totalDistance 	3323.1279039452
scalar Floatingscenario.node[32].mobility 	totalCO2Emission 	1202.5680627771
scalar Floatingscenario.node[50].nic.phy80211p 	busyTime 	0.0022741964285714
scalar Floatingscenario.node[50].nic.mac1609_4 	ReceivedUnicastPackets 	0
scalar Floatingscenario.node[50].nic.mac1609_4 	ReceivedBroadcasts 	1064
scalar Floatingscenario.node[50].nic.mac1609_4 	SentPackets 	2
scalar Floatingscenario.node[50].nic.mac1609_4 	SNIRLostPackets 	1080
scalar Floatingscenario.node[50].nic.mac1609_4 	RXTXLostPackets 	0
scalar Floatingscenario.node[50].nic.mac1609_4 	TotalLostPackets 	1080
scalar Floatingscenario.node[50].nic.mac1609_4 	DroppedPacketsInMac 	0
scalar Floatingscenario.node[50].nic.mac1609_4 	TooLittleTime 	0
scalar Floatingscenario.node[50].nic.mac1609_4 	TimesIntoBackoff 	2
scalar Floatingscenario.node[50].nic.mac1609_4 	SlotsBackoff 	3
scalar Floatingscenario.node[50].nic.mac1609_4 	NumInternalContention 	0
scalar Floatingscenario.node[50].nic.mac1609_4 	totalBusyTime 	0.544624547596
scalar Floatingscenario.node[50].mobility 	startTime 	50.1
scalar Floatingscenario.node[50].mobility 	totalTime 	358.3
scalar Floatingscenario.node[50].mobility 	stopTime 	408.5
scalar Floatingscenario.node[50].mobility 	minSpeed 	3.1555609302516e-14
scalar Floatingscenario.node[50].mobility 	maxSpeed 	27.779777955888
scalar Floatingscenario.node[50].mobility 	totalDistance 	2529.5353962655
scalar Floatingscenario.node[50].mobility 	totalCO2Emission 	1005.4868003956
scalar Floatingscenario.node[219].nic.phy80211p 	busyTime 	0.001203523206751
scalar Floatingscenario.node[219].nic.mac1609_4 	ReceivedUnicastPackets 	0
scalar Floatingscenario.node[219].nic.mac1609_4 	ReceivedBroadcasts 	393
scalar Floatingscenario.node[219].nic.mac1609_4 	SentPackets 	0
scalar Floatingscenario.node[219].nic.mac1609_4 	SNIRLostPackets 	211
scalar Floatingscenario.node[219].nic.mac1609_4 	RXTXLostPackets 	0
scalar Floatingscenario.node[219].nic.mac1609_4 	TotalLostPackets 	211
scalar Floatingscenario.node[219].nic.mac1609_4 	DroppedPacketsInMac 	0
scalar Floatingscenario.node[219].nic.mac1609_4 	TooLittleTime 	0
scalar Floatingscenario.node[219].nic.mac1609_4 	TimesIntoBackoff 	0
scalar Floatingscenario.node[219].nic.mac1609_4 	SlotsBackoff 	0
scalar Floatingscenario.node[219].nic.mac1609_4 	NumInternalContention 	0
scalar Floatingscenario.node[219].nic.mac1609_4 	totalBusyTime 	0.182463928195
scalar Floatingscenario.node[219].mobility 	startTime 	221.1
scalar Floatingscenario.node[219].mobility 	totalTime 	189.5
scalar Floatingscenario.node[219].mobility 	stopTime 	410.7
scalar Floatingscenario.node[219].mobility 	minSpeed 	1.0655215460517e-08
scalar Floatingscenario.node[219].mobility 	maxSpeed 	22.219581372598
scalar Floatingscenario.node[219].mobility 	totalDistance 	2195.6301595739
scalar Floatingscenario.node[219].mobility 	totalCO2Emission 	593.45406119232
scalar Floatingscenario.node[65].nic.phy80211p 	busyTime 	0.0022599099344978
scalar Floatingscenario.node[65].nic.mac1609_4 	ReceivedUnicastPackets 	0
scalar Floatingscenario.node[65].nic.mac1609_4 	ReceivedBroadcasts 	978
scalar Floatingscenario.node[65].nic.mac1609_4 	SentPackets 	61
scalar Floatingscenario.node[65].nic.mac1609_4 	SNIRLostPackets 	1197
scalar Floatingscenario.node[65].nic.mac1609_4 	RXTXLostPackets 	97
scalar Floatingscenario.node[65].nic.mac1609_4 	TotalLostPackets 	1294
scalar Floatingscenario.node[65].nic.mac1609_4 	DroppedPacketsInMac 	0
scalar Floatingscenario.node[65].nic.mac1609_4 	TooLittleTime 	0
scalar Floatingscenario.node[65].nic.mac1609_4 	TimesIntoBackoff 	106
scalar Floatingscenario.node[65].nic.mac1609_4 	SlotsBackoff 	368
scalar Floatingscenario.node[65].nic.mac1609_4 	NumInternalContention 	0
scalar Floatingscenario.node[65].nic.mac1609_4 	totalBusyTime 	0.567415086218
scalar Floatingscenario.node[65].mobility 	startTime 	65.1
scalar Floatingscenario.node[65].mobility 	totalTime 	366.3
scalar Floatingscenario.node[65].mobility 	stopTime 	431.5
scalar Floatingscenario.node[65].mobility 	minSpeed 	5.8635635936883e-14
scalar Floatingscenario.node[65].mobility 	maxSpeed 	22.219911439179
scalar Floatingscenario.node[65].mobility 	totalDistance 	2411.4391069787
scalar Floatingscenario.node[65].mobility 	totalCO2Emission 	890.04943796052
scalar Floatingscenario.node[277].nic.phy80211p 	busyTime 	0.0010815664845173
scalar Floatingscenario.node[277].nic.mac1609_4 	ReceivedUnicastPackets 	0
scalar Floatingscenario.node[277].nic.mac1609_4 	ReceivedBroadcasts 	295
scalar Floatingscenario.node[277].nic.mac1609_4 	SentPackets 	1
scalar Floatingscenario.node[277].nic.mac1609_4 	SNIRLostPackets 	175
scalar Floatingscenario.node[277].nic.mac1609_4 	RXTXLostPackets 	0
scalar Floatingscenario.node[277].nic.mac1609_4 	TotalLostPackets 	175
scalar Floatingscenario.node[277].nic.mac1609_4 	DroppedPacketsInMac 	0
scalar Floatingscenario.node[277].nic.mac1609_4 	TooLittleTime 	0
scalar Floatingscenario.node[277].nic.mac1609_4 	TimesIntoBackoff 	1
scalar Floatingscenario.node[277].nic.mac1609_4 	SlotsBackoff 	3
scalar Floatingscenario.node[277].nic.mac1609_4 	NumInternalContention 	0
scalar Floatingscenario.node[277].nic.mac1609_4 	totalBusyTime 	0.139977846415
scalar Floatingscenario.node[277].mobility 	startTime 	280.1
scalar Floatingscenario.node[277].mobility 	totalTime 	164.6
scalar Floatingscenario.node[277].mobility 	stopTime 	444.8
scalar Floatingscenario.node[277].mobility 	minSpeed 	0.081705730583768
scalar Floatingscenario.node[277].mobility 	maxSpeed 	22.219502741885
scalar Floatingscenario.node[277].mobility 	totalDistance 	2031.9435805677
scalar Floatingscenario.node[277].mobility 	totalCO2Emission 	513.96572784244
scalar Floatingscenario.node[106].nic.phy80211p 	busyTime 	0.0030153901943719
scalar Floatingscenario.node[106].nic.mac1609_4 	ReceivedUnicastPackets 	0
scalar Floatingscenario.node[106].nic.mac1609_4 	ReceivedBroadcasts 	1124
scalar Floatingscenario.node[106].nic.mac1609_4 	SentPackets 	15
scalar Floatingscenario.node[106].nic.mac1609_4 	SNIRLostPackets 	1609
scalar Floatingscenario.node[106].nic.mac1609_4 	RXTXLostPackets 	20
scalar Floatingscenario.node[106].nic.mac1609_4 	TotalLostPackets 	1629
scalar Floatingscenario.node[106].nic.mac1609_4 	DroppedPacketsInMac 	0
scalar Floatingscenario.node[106].nic.mac1609_4 	TooLittleTime 	0
scalar Floatingscenario.node[106].nic.mac1609_4 	TimesIntoBackoff 	25
scalar Floatingscenario.node[106].nic.mac1609_4 	SlotsBackoff 	90
scalar Floatingscenario.node[106].nic.mac1609_4 	NumInternalContention 	0
scalar Floatingscenario.node[106].nic.mac1609_4 	totalBusyTime 	0.643416506586
scalar Floatingscenario.node[106].mobility 	startTime 	106.1
scalar Floatingscenario.node[106].mobility 	totalTime 	344.6
scalar Floatingscenario.node[106].mobility 	stopTime 	450.8
scalar Floatingscenario.node[106].mobility 	minSpeed 	3.1538909569525e-14
scalar Floatingscenario.node[106].mobility 	maxSpeed 	22.219917753595
scalar Floatingscenario.node[106].mobility 	totalDistance 	2226.8475725884
scalar Floatingscenario.node[106].mobility 	totalCO2Emission 	782.11414471404
scalar Floatingscenario.node[82].nic.phy80211p 	busyTime 	0.0024509132420091
scalar Floatingscenario.node[82].nic.mac1609_4 	ReceivedUnicastPackets 	0
scalar Floatingscenario.node[82].nic.mac1609_4 	ReceivedBroadcasts 	1044
scalar Floatingscenario.node[82].nic.mac1609_4 	SentPackets 	2
scalar Floatingscenario.node[82].nic.mac1609_4 	SNIRLostPackets 	1351
scalar Floatingscenario.node[82].nic.mac1609_4 	RXTXLostPackets 	4
scalar Floatingscenario.node[82].nic.mac1609_4 	TotalLostPackets 	1355
scalar Floatingscenario.node[82].nic.mac1609_4 	DroppedPacketsInMac 	0
scalar Floatingscenario.node[82].nic.mac1609_4 	TooLittleTime 	0
scalar Floatingscenario.node[82].nic.mac1609_4 	TimesIntoBackoff 	3
scalar Floatingscenario.node[82].nic.mac1609_4 	SlotsBackoff 	3
scalar Floatingscenario.node[82].nic.mac1609_4 	NumInternalContention 	0
scalar Floatingscenario.node[82].nic.mac1609_4 	totalBusyTime 	0.584657362131
scalar Floatingscenario.node[82].mobility 	startTime 	82.1
scalar Floatingscenario.node[82].mobility 	totalTime 	372.2
scalar Floatingscenario.node[82].mobility 	stopTime 	454.4
scalar Floatingscenario.node[82].mobility 	minSpeed 	5.7367718429716e-13
scalar Floatingscenario.node[82].mobility 	maxSpeed 	22.219248296109
scalar Floatingscenario.node[82].mobility 	totalDistance 	2524.4868751673
scalar Floatingscenario.node[82].mobility 	totalCO2Emission 	852.56144884366
scalar Floatingscenario.node[33].nic.phy80211p 	busyTime 	0.0020719325153374
scalar Floatingscenario.node[33].nic.mac1609_4 	ReceivedUnicastPackets 	0
scalar Floatingscenario.node[33].nic.mac1609_4 	ReceivedBroadcasts 	1080
scalar Floatingscenario.node[33].nic.mac1609_4 	SentPackets 	69
scalar Floatingscenario.node[33].nic.mac1609_4 	SNIRLostPackets 	1229
scalar Floatingscenario.node[33].nic.mac1609_4 	RXTXLostPackets 	99
scalar Floatingscenario.node[33].nic.mac1609_4 	TotalLostPackets 	1328
scalar Floatingscenario.node[33].nic.mac1609_4 	DroppedPacketsInMac 	0
scalar Floatingscenario.node[33].nic.mac1609_4 	TooLittleTime 	0
scalar Floatingscenario.node[33].nic.mac1609_4 	TimesIntoBackoff 	131
scalar Floatingscenario.node[33].nic.mac1609_4 	SlotsBackoff 	441
scalar Floatingscenario.node[33].nic.mac1609_4 	NumInternalContention 	0
scalar Floatingscenario.node[33].nic.mac1609_4 	totalBusyTime 	0.609324452459
scalar Floatingscenario.node[33].mobility 	startTime 	33.1
scalar Floatingscenario.node[33].mobility 	totalTime 	423.7
scalar Floatingscenario.node[33].mobility 	stopTime 	456.9
scalar Floatingscenario.node[33].mobility 	minSpeed 	5.8538492613285e-14
scalar Floatingscenario.node[33].mobility 	maxSpeed 	22.219990581057
scalar Floatingscenario.node[33].mobility 	totalDistance 	2553.5467576123
scalar Floatingscenario.node[33].mobility 	totalCO2Emission 	887.42758008704
scalar Floatingscenario.node[35].nic.phy80211p 	busyTime 	0.0031648414855074
scalar Floatingscenario.node[35].nic.mac1609_4 	ReceivedUnicastPackets 	0
scalar Floatingscenario.node[35].nic.mac1609_4 	ReceivedBroadcasts 	1675
scalar Floatingscenario.node[35].nic.mac1609_4 	SentPackets 	92
scalar Floatingscenario.node[35].nic.mac1609_4 	SNIRLostPackets 	1999
scalar Floatingscenario.node[35].nic.mac1609_4 	RXTXLostPackets 	44
scalar Floatingscenario.node[35].nic.mac1609_4 	TotalLostPackets 	2043
scalar Floatingscenario.node[35].nic.mac1609_4 	DroppedPacketsInMac 	0
scalar Floatingscenario.node[35].nic.mac1609_4 	TooLittleTime 	0
scalar Floatingscenario.node[35].nic.mac1609_4 	TimesIntoBackoff 	149
scalar Floatingscenario.node[35].nic.mac1609_4 	SlotsBackoff 	505
scalar Floatingscenario.node[35].nic.mac1609_4 	NumInternalContention 	0
scalar Floatingscenario.node[35].nic.mac1609_4 	totalBusyTime 	0.935922333584
scalar Floatingscenario.node[35].mobility 	startTime 	35.1
scalar Floatingscenario.node[35].mobility 	totalTime 	441.5
scalar Floatingscenario.node[35].mobility 	stopTime 	476.7
scalar Floatingscenario.node[35].mobility 	minSpeed 	3.1537318300981e-14
scalar Floatingscenario.node[35].mobility 	maxSpeed 	27.779733745109
scalar Floatingscenario.node[35].mobility 	totalDistance 	2622.0770833544
scalar Floatingscenario.node[35].mobility 	totalCO2Emission 	1006.4426827822
scalar Floatingscenario.node[24].nic.phy80211p 	busyTime 	0.0022629714285714
scalar Floatingscenario.node[24].nic.mac1609_4 	ReceivedUnicastPackets 	0
scalar Floatingscenario.node[24].nic.mac1609_4 	ReceivedBroadcasts 	1223
scalar Floatingscenario.node[24].nic.mac1609_4 	SentPackets 	36
scalar Floatingscenario.node[24].nic.mac1609_4 	SNIRLostPackets 	1485
scalar Floatingscenario.node[24].nic.mac1609_4 	RXTXLostPackets 	3
scalar Floatingscenario.node[24].nic.mac1609_4 	TotalLostPackets 	1488
scalar Floatingscenario.node[24].nic.mac1609_4 	DroppedPacketsInMac 	0
scalar Floatingscenario.node[24].nic.mac1609_4 	TooLittleTime 	0
scalar Floatingscenario.node[24].nic.mac1609_4 	TimesIntoBackoff 	52
scalar Floatingscenario.node[24].nic.mac1609_4 	SlotsBackoff 	165
scalar Floatingscenario.node[24].nic.mac1609_4 	NumInternalContention 	0
scalar Floatingscenario.node[24].nic.mac1609_4 	totalBusyTime 	0.684516648209
scalar Floatingscenario.node[24].mobility 	startTime 	24.1
scalar Floatingscenario.node[24].mobility 	totalTime 	454.9
scalar Floatingscenario.node[24].mobility 	stopTime 	479.1
scalar Floatingscenario.node[24].mobility 	minSpeed 	7.9112148648718e-15
scalar Floatingscenario.node[24].mobility 	maxSpeed 	27.775964624563
scalar Floatingscenario.node[24].mobility 	totalDistance 	3070.0484091099
scalar Floatingscenario.node[24].mobility 	totalCO2Emission 	1165.5717860262
scalar Floatingscenario.node[81].nic.phy80211p 	busyTime 	0.0024752716849451
scalar Floatingscenario.node[81].nic.mac1609_4 	ReceivedUnicastPackets 	0
scalar Floatingscenario.node[81].nic.mac1609_4 	ReceivedBroadcasts 	1432
scalar Floatingscenario.node[81].nic.mac1609_4 	SentPackets 	46
scalar Floatingscenario.node[81].nic.mac1609_4 	SNIRLostPackets 	1183
scalar Floatingscenario.node[81].nic.mac1609_4 	RXTXLostPackets 	20
scalar Floatingscenario.node[81].nic.mac1609_4 	TotalLostPackets 	1203
scalar Floatingscenario.node[81].nic.mac1609_4 	DroppedPacketsInMac 	0
scalar Floatingscenario.node[81].nic.mac1609_4 	TooLittleTime 	0
scalar Floatingscenario.node[81].nic.mac1609_4 	TimesIntoBackoff 	78
scalar Floatingscenario.node[81].nic.mac1609_4 	SlotsBackoff 	229
scalar Floatingscenario.node[81].nic.mac1609_4 	NumInternalContention 	0
scalar Floatingscenario.node[81].nic.mac1609_4 	totalBusyTime 	0.727935369149
scalar Floatingscenario.node[81].mobility 	startTime 	81.1
scalar Floatingscenario.node[81].mobility 	totalTime 	401.1
scalar Floatingscenario.node[81].mobility 	stopTime 	482.3
scalar Floatingscenario.node[81].mobility 	minSpeed 	1.4666105170688e-14
scalar Floatingscenario.node[81].mobility 	maxSpeed 	27.778947851048
scalar Floatingscenario.node[81].mobility 	totalDistance 	2577.2839839947
scalar Floatingscenario.node[81].mobility 	totalCO2Emission 	950.17391254179
scalar Floatingscenario.node[22].nic.phy80211p 	busyTime 	0.0023165267258169
scalar Floatingscenario.node[22].nic.mac1609_4 	ReceivedUnicastPackets 	0
scalar Floatingscenario.node[22].nic.mac1609_4 	ReceivedBroadcasts 	1533
scalar Floatingscenario.node[22].nic.mac1609_4 	SentPackets 	36
scalar Floatingscenario.node[22].nic.mac1609_4 	SNIRLostPackets 	1286
scalar Floatingscenario.node[22].nic.mac1609_4 	RXTXLostPackets 	57
scalar Floatingscenario.node[22].nic.mac1609_4 	TotalLostPackets 	1343
scalar Floatingscenario.node[22].nic.mac1609_4 	DroppedPacketsInMac 	0
scalar Floatingscenario.node[22].nic.mac1609_4 	TooLittleTime 	0
scalar Floatingscenario.node[22].nic.mac1609_4 	TimesIntoBackoff 	61
scalar Floatingscenario.node[22].nic.mac1609_4 	SlotsBackoff 	225
scalar Floatingscenario.node[22].nic.mac1609_4 	NumInternalContention 	0
scalar Floatingscenario.node[22].nic.mac1609_4 	totalBusyTime 	0.785042678666
scalar Floatingscenario.node[22].mobility 	startTime 	22.1
scalar Floatingscenario.node[22].mobility 	totalTime 	462
scalar Floatingscenario.node[22].mobility 	stopTime 	484.2
scalar Floatingscenario.node[22].mobility 	minSpeed 	5.8537857790604e-14
scalar Floatingscenario.node[22].mobility 	maxSpeed 	27.779513307016
scalar Floatingscenario.node[22].mobility 	totalDistance 	2733.2151092023
scalar Floatingscenario.node[22].mobility 	totalCO2Emission 	1041.8732094385
scalar Floatingscenario.node[373].nic.phy80211p 	busyTime 	0.001770564010743
scalar Floatingscenario.node[373].nic.mac1609_4 	ReceivedUnicastPackets 	0
scalar Floatingscenario.node[373].nic.mac1609_4 	ReceivedBroadcasts 	355
scalar Floatingscenario.node[373].nic.mac1609_4 	SentPackets 	0
scalar Floatingscenario.node[373].nic.mac1609_4 	SNIRLostPackets 	169
scalar Floatingscenario.node[373].nic.mac1609_4 	RXTXLostPackets 	0
scalar Floatingscenario.node[373].nic.mac1609_4 	TotalLostPackets 	169
scalar Floatingscenario.node[373].nic.mac1609_4 	DroppedPacketsInMac 	0
scalar Floatingscenario.node[373].nic.mac1609_4 	TooLittleTime 	0
scalar Floatingscenario.node[373].nic.mac1609_4 	TimesIntoBackoff 	0
scalar Floatingscenario.node[373].nic.mac1609_4 	SlotsBackoff 	0
scalar Floatingscenario.node[373].nic.mac1609_4 	NumInternalContention 	0
scalar Floatingscenario.node[373].nic.mac1609_4 	totalBusyTime 	0.166251984196
scalar Floatingscenario.node[373].mobility 	startTime 	377.1
scalar Floatingscenario.node[373].mobility 	totalTime 	111.6
scalar Floatingscenario.node[373].mobility 	stopTime 	488.8
scalar Floatingscenario.node[373].mobility 	minSpeed 	3.3709718758397
scalar Floatingscenario.node[373].mobility 	maxSpeed 	27.779994368732
scalar Floatingscenario.node[373].mobility 	totalDistance 	1905.3464273223
scalar Floatingscenario.node[373].mobility 	totalCO2Emission 	471.80671516473
scalar Floatingscenario.node[118].nic.phy80211p 	busyTime 	0.0029303156498674
scalar Floatingscenario.node[118].nic.mac1609_4 	ReceivedUnicastPackets 	0
scalar Floatingscenario.node[118].nic.mac1609_4 	ReceivedBroadcasts 	1159
scalar Floatingscenario.node[118].nic.mac1609_4 	SentPackets 	3
scalar Floatingscenario.node[118].nic.mac1609_4 	SNIRLostPackets 	1746
scalar Floatingscenario.node[118].nic.mac1609_4 	RXTXLostPackets 	0
scalar Floatingscenario.node[118].nic.mac1609_4 	TotalLostPackets 	1746
scalar Floatingscenario.node[118].nic.mac1609_4 	DroppedPacketsInMac 	0
scalar Floatingscenario.node[118].nic.mac1609_4 	TooLittleTime 	0
scalar Floatingscenario.node[118].nic.mac1609_4 	TimesIntoBackoff 	3
scalar Floatingscenario.node[118].nic.mac1609_4 	SlotsBackoff 	1
scalar Floatingscenario.node[118].nic.mac1609_4 	NumInternalContention 	0
scalar Floatingscenario.node[118].nic.mac1609_4 	totalBusyTime 	0.668886667127
scalar Floatingscenario.node[118].mobility 	startTime 	118.1
scalar Floatingscenario.node[118].mobility 	totalTime 	376.9
scalar Floatingscenario.node[118].mobility 	stopTime 	495.1
scalar Floatingscenario.node[118].mobility 	minSpeed 	5.8540372475446e-14
scalar Floatingscenario.node[118].mobility 	maxSpeed 	22.219944597967
scalar Floatingscenario.node[118].mobility 	totalDistance 	2722.1160765749
scalar Floatingscenario.node[118].mobility 	totalCO2Emission 	926.32042811117
scalar Floatingscenario.node[127].nic.phy80211p 	busyTime 	0.0029560505572166
scalar Floatingscenario.node[127].nic.mac1609_4 	ReceivedUnicastPackets 	0
scalar Floatingscenario.node[127].nic.mac1609_4 	ReceivedBroadcasts 	1130
scalar Floatingscenario.node[127].nic.mac1609_4 	SentPackets 	2
scalar Floatingscenario.node[127].nic.mac1609_4 	SNIRLostPackets 	1729
scalar Floatingscenario.node[127].nic.mac1609_4 	RXTXLostPackets 	0
scalar Floatingscenario.node[127].nic.mac1609_4 	TotalLostPackets 	1729
scalar Floatingscenario.node[127].nic.mac1609_4 	DroppedPacketsInMac 	0
scalar Floatingscenario.node[127].nic.mac1609_4 	TooLittleTime 	0
scalar Floatingscenario.node[127].nic.mac1609_4 	TimesIntoBackoff 	2
scalar Floatingscenario.node[127].nic.mac1609_4 	SlotsBackoff 	2
scalar Floatingscenario.node[127].nic.mac1609_4 	NumInternalContention 	0
scalar Floatingscenario.node[127].nic.mac1609_4 	totalBusyTime 	0.65732461393
scalar Floatingscenario.node[127].mobility 	startTime 	128.1
scalar Floatingscenario.node[127].mobility 	totalTime 	367.8
scalar Floatingscenario.node[127].mobility 	stopTime 	496
scalar Floatingscenario.node[127].mobility 	minSpeed 	5.8540565954623e-14
scalar Floatingscenario.node[127].mobility 	maxSpeed 	22.219361196202
scalar Floatingscenario.node[127].mobility 	totalDistance 	2718.4106143039
scalar Floatingscenario.node[127].mobility 	totalCO2Emission 	937.92034251299
scalar Floatingscenario.node[133].nic.phy80211p 	busyTime 	0.00038015056118259
scalar Floatingscenario.node[133].nic.mac1609_4 	ReceivedUnicastPackets 	0
scalar Floatingscenario.node[133].nic.mac1609_4 	ReceivedBroadcasts 	212
scalar Floatingscenario.node[133].nic.mac1609_4 	SentPackets 	4
scalar Floatingscenario.node[133].nic.mac1609_4 	SNIRLostPackets 	161
scalar Floatingscenario.node[133].nic.mac1609_4 	RXTXLostPackets 	0
scalar Floatingscenario.node[133].nic.mac1609_4 	TotalLostPackets 	161
scalar Floatingscenario.node[133].nic.mac1609_4 	DroppedPacketsInMac 	0
[...]
scalar Floatingscenario.manager.anchorZone[277] 	ypos 	800
scalar Floatingscenario.manager.anchorZone[277] 	numNodes 	0
scalar Floatingscenario.manager.anchorZone[278] 	criticality 	0
scalar Floatingscenario.manager.anchorZone[278] 	criticality2 	0
scalar Floatingscenario.manager.anchorZone[278] 	criticality3 	0
scalar Floatingscenario.manager.anchorZone[278] 	removed 	1
scalar Floatingscenario.manager.anchorZone[278] 	infected 	1
scalar Floatingscenario.manager.anchorZone[278] 	transit 	6
scalar Floatingscenario.manager.anchorZone[278] 	contactsPerSecond 	0
scalar Floatingscenario.manager.anchorZone[278] 	timeAverage 	24.666666666667
scalar Floatingscenario.manager.anchorZone[278] 	avgContacts 	0
scalar Floatingscenario.manager.anchorZone[278] 	contactTime 	0
scalar Floatingscenario.manager.anchorZone[278] 	contacts 	0
scalar Floatingscenario.manager.anchorZone[278] 	replicas 	0
scalar Floatingscenario.manager.anchorZone[278] 	xpos 	4200
scalar Floatingscenario.manager.anchorZone[278] 	ypos 	1000
scalar Floatingscenario.manager.anchorZone[278] 	numNodes 	0
scalar Floatingscenario.manager.anchorZone[279] 	criticality 	0
scalar Floatingscenario.manager.anchorZone[279] 	criticality2 	0
scalar Floatingscenario.manager.anchorZone[279] 	criticality3 	0
scalar Floatingscenario.manager.anchorZone[279] 	removed 	1
scalar Floatingscenario.manager.anchorZone[279] 	infected 	1
scalar Floatingscenario.manager.anchorZone[279] 	transit 	33
scalar Floatingscenario.manager.anchorZone[279] 	contactsPerSecond 	0
scalar Floatingscenario.manager.anchorZone[279] 	timeAverage 	29.090909090909
scalar Floatingscenario.manager.anchorZone[279] 	avgContacts 	0
scalar Floatingscenario.manager.anchorZone[279] 	contactTime 	0
scalar Floatingscenario.manager.anchorZone[279] 	contacts 	0
scalar Floatingscenario.manager.anchorZone[279] 	replicas 	0
scalar Floatingscenario.manager.anchorZone[279] 	xpos 	4200
scalar Floatingscenario.manager.anchorZone[279] 	ypos 	1200
scalar Floatingscenario.manager.anchorZone[279] 	numNodes 	5
scalar Floatingscenario.manager.anchorZone[280] 	criticality 	1
scalar Floatingscenario.manager.anchorZone[280] 	criticality2 	0.87148586533328
scalar Floatingscenario.manager.anchorZone[280] 	criticality3 	0.1894534489855
scalar Floatingscenario.manager.anchorZone[280] 	removed 	1
scalar Floatingscenario.manager.anchorZone[280] 	infected 	1
scalar Floatingscenario.manager.anchorZone[280] 	transit 	46
scalar Floatingscenario.manager.anchorZone[280] 	contactsPerSecond 	0.00030925687201323
scalar Floatingscenario.manager.anchorZone[280] 	timeAverage 	61.260869565217
scalar Floatingscenario.manager.anchorZone[280] 	avgContacts 	0.021739130434783
scalar Floatingscenario.manager.anchorZone[280] 	contactTime 	0
scalar Floatingscenario.manager.anchorZone[280] 	contacts 	1
scalar Floatingscenario.manager.anchorZone[280] 	replicas 	0
scalar Floatingscenario.manager.anchorZone[280] 	xpos 	4200
scalar Floatingscenario.manager.anchorZone[280] 	ypos 	1400
scalar Floatingscenario.manager.anchorZone[280] 	numNodes 	10
scalar Floatingscenario.manager.anchorZone[281] 	criticality 	0
scalar Floatingscenario.manager.anchorZone[281] 	criticality2 	0
scalar Floatingscenario.manager.anchorZone[281] 	criticality3 	0
scalar Floatingscenario.manager.anchorZone[281] 	removed 	1
scalar Floatingscenario.manager.anchorZone[281] 	infected 	1
scalar Floatingscenario.manager.anchorZone[281] 	transit 	13
scalar Floatingscenario.manager.anchorZone[281] 	contactsPerSecond 	0
scalar Floatingscenario.manager.anchorZone[281] 	timeAverage 	17.384615384615
scalar Floatingscenario.manager.anchorZone[281] 	avgContacts 	0
scalar Floatingscenario.manager.anchorZone[281] 	contactTime 	0
scalar Floatingscenario.manager.anchorZone[281] 	contacts 	0
scalar Floatingscenario.manager.anchorZone[281] 	replicas 	0
scalar Floatingscenario.manager.anchorZone[281] 	xpos 	4200
scalar Floatingscenario.manager.anchorZone[281] 	ypos 	1600
scalar Floatingscenario.manager.anchorZone[281] 	numNodes 	0
scalar Floatingscenario.manager.anchorZone[282] 	criticality 	0
scalar Floatingscenario.manager.anchorZone[282] 	criticality2 	0
scalar Floatingscenario.manager.anchorZone[282] 	criticality3 	0
scalar Floatingscenario.manager.anchorZone[282] 	removed 	1
scalar Floatingscenario.manager.anchorZone[282] 	infected 	1
scalar Floatingscenario.manager.anchorZone[282] 	transit 	1
scalar Floatingscenario.manager.anchorZone[282] 	contactsPerSecond 	0
scalar Floatingscenario.manager.anchorZone[282] 	timeAverage 	1
scalar Floatingscenario.manager.anchorZone[282] 	avgContacts 	0
scalar Floatingscenario.manager.anchorZone[282] 	contactTime 	0
scalar Floatingscenario.manager.anchorZone[282] 	contacts 	0
scalar Floatingscenario.manager.anchorZone[282] 	replicas 	0
scalar Floatingscenario.manager.anchorZone[282] 	xpos 	4200
scalar Floatingscenario.manager.anchorZone[282] 	ypos 	1800
scalar Floatingscenario.manager.anchorZone[282] 	numNodes 	0
scalar Floatingscenario.manager.anchorZone[283] 	criticality 	0
scalar Floatingscenario.manager.anchorZone[283] 	criticality2 	0
scalar Floatingscenario.manager.anchorZone[283] 	criticality3 	0
scalar Floatingscenario.manager.anchorZone[283] 	removed 	0
scalar Floatingscenario.manager.anchorZone[283] 	infected 	0
scalar Floatingscenario.manager.anchorZone[283] 	transit 	0
scalar Floatingscenario.manager.anchorZone[283] 	contactsPerSecond 	0
scalar Floatingscenario.manager.anchorZone[283] 	timeAverage 	0
scalar Floatingscenario.manager.anchorZone[283] 	avgContacts 	0
scalar Floatingscenario.manager.anchorZone[283] 	contactTime 	0
scalar Floatingscenario.manager.anchorZone[283] 	contacts 	0
scalar Floatingscenario.manager.anchorZone[283] 	replicas 	0
scalar Floatingscenario.manager.anchorZone[283] 	xpos 	4200
scalar Floatingscenario.manager.anchorZone[283] 	ypos 	2000
scalar Floatingscenario.manager.anchorZone[283] 	numNodes 	0
scalar Floatingscenario.manager.anchorZone[284] 	criticality 	0
scalar Floatingscenario.manager.anchorZone[284] 	criticality2 	0
scalar Floatingscenario.manager.anchorZone[284] 	criticality3 	0
scalar Floatingscenario.manager.anchorZone[284] 	removed 	0
scalar Floatingscenario.manager.anchorZone[284] 	infected 	0
scalar Floatingscenario.manager.anchorZone[284] 	transit 	0
scalar Floatingscenario.manager.anchorZone[284] 	contactsPerSecond 	0
scalar Floatingscenario.manager.anchorZone[284] 	timeAverage 	0
scalar Floatingscenario.manager.anchorZone[284] 	avgContacts 	0
scalar Floatingscenario.manager.anchorZone[284] 	contactTime 	0
scalar Floatingscenario.manager.anchorZone[284] 	contacts 	0
scalar Floatingscenario.manager.anchorZone[284] 	replicas 	0
scalar Floatingscenario.manager.anchorZone[284] 	xpos 	4200
scalar Floatingscenario.manager.anchorZone[284] 	ypos 	2200
scalar Floatingscenario.manager.anchorZone[284] 	numNodes 	0
scalar Floatingscenario.manager.anchorZone[285] 	criticality 	0
scalar Floatingscenario.manager.anchorZone[285] 	criticality2 	0
scalar Floatingscenario.manager.anchorZone[285] 	criticality3 	0
scalar Floatingscenario.manager.anchorZone[285] 	removed 	0
scalar Floatingscenario.manager.anchorZone[285] 	infected 	0
scalar Floatingscenario.manager.anchorZone[285] 	transit 	0
scalar Floatingscenario.manager.anchorZone[285] 	contactsPerSecond 	0
scalar Floatingscenario.manager.anchorZone[285] 	timeAverage 	0
scalar Floatingscenario.manager.anchorZone[285] 	avgContacts 	0
scalar Floatingscenario.manager.anchorZone[285] 	contactTime 	0
scalar Floatingscenario.manager.anchorZone[285] 	contacts 	0
scalar Floatingscenario.manager.anchorZone[285] 	replicas 	0
scalar Floatingscenario.manager.anchorZone[285] 	xpos 	4200
scalar Floatingscenario.manager.anchorZone[285] 	ypos 	2400
scalar Floatingscenario.manager.anchorZone[285] 	numNodes 	0
scalar Floatingscenario.manager.anchorZone[286] 	criticality 	0
scalar Floatingscenario.manager.anchorZone[286] 	criticality2 	0
scalar Floatingscenario.manager.anchorZone[286] 	criticality3 	0
scalar Floatingscenario.manager.anchorZone[286] 	removed 	0
scalar Floatingscenario.manager.anchorZone[286] 	infected 	0
scalar Floatingscenario.manager.anchorZone[286] 	transit 	0
scalar Floatingscenario.manager.anchorZone[286] 	contactsPerSecond 	0
scalar Floatingscenario.manager.anchorZone[286] 	timeAverage 	0
scalar Floatingscenario.manager.anchorZone[286] 	avgContacts 	0
scalar Floatingscenario.manager.anchorZone[286] 	contactTime 	0
scalar Floatingscenario.manager.anchorZone[286] 	contacts 	0
scalar Floatingscenario.manager.anchorZone[286] 	replicas 	0
scalar Floatingscenario.manager.anchorZone[286] 	xpos 	4400
scalar Floatingscenario.manager.anchorZone[286] 	ypos 	0
scalar Floatingscenario.manager.anchorZone[286] 	numNodes 	0
scalar Floatingscenario.manager.anchorZone[287] 	criticality 	0
scalar Floatingscenario.manager.anchorZone[287] 	criticality2 	0
scalar Floatingscenario.manager.anchorZone[287] 	criticality3 	0
scalar Floatingscenario.manager.anchorZone[287] 	removed 	0
scalar Floatingscenario.manager.anchorZone[287] 	infected 	0
scalar Floatingscenario.manager.anchorZone[287] 	transit 	0
scalar Floatingscenario.manager.anchorZone[287] 	contactsPerSecond 	0
scalar Floatingscenario.manager.anchorZone[287] 	timeAverage 	0
scalar Floatingscenario.manager.anchorZone[287] 	avgContacts 	0
scalar Floatingscenario.manager.anchorZone[287] 	contactTime 	0
scalar Floatingscenario.manager.anchorZone[287] 	contacts 	0
scalar Floatingscenario.manager.anchorZone[287] 	replicas 	0
scalar Floatingscenario.manager.anchorZone[287] 	xpos 	4400
scalar Floatingscenario.manager.anchorZone[287] 	ypos 	200
scalar Floatingscenario.manager.anchorZone[287] 	numNodes 	0
scalar Floatingscenario.manager.anchorZone[288] 	criticality 	0
scalar Floatingscenario.manager.anchorZone[288] 	criticality2 	0
scalar Floatingscenario.manager.anchorZone[288] 	criticality3 	0
scalar Floatingscenario.manager.anchorZone[288] 	removed 	0
scalar Floatingscenario.manager.anchorZone[288] 	infected 	0
scalar Floatingscenario.manager.anchorZone[288] 	transit 	0
scalar Floatingscenario.manager.anchorZone[288] 	contactsPerSecond 	0
scalar Floatingscenario.manager.anchorZone[288] 	timeAverage 	0
scalar Floatingscenario.manager.anchorZone[288] 	avgContacts 	0
scalar Floatingscenario.manager.anchorZone[288] 	contactTime 	0
scalar Floatingscenario.manager.anchorZone[288] 	contacts 	0
scalar Floatingscenario.manager.anchorZone[288] 	replicas 	0
scalar Floatingscenario.manager.anchorZone[288] 	xpos 	4400
scalar Floatingscenario.manager.anchorZone[288] 	ypos 	400
scalar Floatingscenario.manager.anchorZone[288] 	numNodes 	0
scalar Floatingscenario.manager.anchorZone[289] 	criticality 	0
scalar Floatingscenario.manager.anchorZone[289] 	criticality2 	0
scalar Floatingscenario.manager.anchorZone[289] 	criticality3 	0
scalar Floatingscenario.manager.anchorZone[289] 	removed 	0
scalar Floatingscenario.manager.anchorZone[289] 	infected 	0
scalar Floatingscenario.manager.anchorZone[289] 	transit 	0
scalar Floatingscenario.manager.anchorZone[289] 	contactsPerSecond 	0
scalar Floatingscenario.manager.anchorZone[289] 	timeAverage 	0
scalar Floatingscenario.manager.anchorZone[289] 	avgContacts 	0
scalar Floatingscenario.manager.anchorZone[289] 	contactTime 	0
scalar Floatingscenario.manager.anchorZone[289] 	contacts 	0
scalar Floatingscenario.manager.anchorZone[289] 	replicas 	0
scalar Floatingscenario.manager.anchorZone[289] 	xpos 	4400
scalar Floatingscenario.manager.anchorZone[289] 	ypos 	600
scalar Floatingscenario.manager.anchorZone[289] 	numNodes 	0
scalar Floatingscenario.manager.anchorZone[290] 	criticality 	0
scalar Floatingscenario.manager.anchorZone[290] 	criticality2 	0
scalar Floatingscenario.manager.anchorZone[290] 	criticality3 	0
scalar Floatingscenario.manager.anchorZone[290] 	removed 	0
scalar Floatingscenario.manager.anchorZone[290] 	infected 	0
scalar Floatingscenario.manager.anchorZone[290] 	transit 	0
scalar Floatingscenario.manager.anchorZone[290] 	contactsPerSecond 	0
scalar Floatingscenario.manager.anchorZone[290] 	timeAverage 	0
scalar Floatingscenario.manager.anchorZone[290] 	avgContacts 	0
scalar Floatingscenario.manager.anchorZone[290] 	contactTime 	0
scalar Floatingscenario.manager.anchorZone[290] 	contacts 	0
scalar Floatingscenario.manager.anchorZone[290] 	replicas 	0
scalar Floatingscenario.manager.anchorZone[290] 	xpos 	4400
scalar Floatingscenario.manager.anchorZone[290] 	ypos 	800
scalar Floatingscenario.manager.anchorZone[290] 	numNodes 	0
scalar Floatingscenario.manager.anchorZone[291] 	criticality 	0
scalar Floatingscenario.manager.anchorZone[291] 	criticality2 	0
scalar Floatingscenario.manager.anchorZone[291] 	criticality3 	0
scalar Floatingscenario.manager.anchorZone[291] 	removed 	0
scalar Floatingscenario.manager.anchorZone[291] 	infected 	0
scalar Floatingscenario.manager.anchorZone[291] 	transit 	0
scalar Floatingscenario.manager.anchorZone[291] 	contactsPerSecond 	0
scalar Floatingscenario.manager.anchorZone[291] 	timeAverage 	0
scalar Floatingscenario.manager.anchorZone[291] 	avgContacts 	0
scalar Floatingscenario.manager.anchorZone[291] 	contactTime 	0
scalar Floatingscenario.manager.anchorZone[291] 	contacts 	0
scalar Floatingscenario.manager.anchorZone[291] 	replicas 	0
scalar Floatingscenario.manager.anchorZone[291] 	xpos 	4400
scalar Floatingscenario.manager.anchorZone[291] 	ypos 	1000
scalar Floatingscenario.manager.anchorZone[291] 	numNodes 	0
scalar Floatingscenario.manager.anchorZone[292] 	criticality 	0
scalar Floatingscenario.manager.anchorZone[292] 	criticality2 	0
scalar Floatingscenario.manager.anchorZone[292] 	criticality3 	0
scalar Floatingscenario.manager.anchorZone[292] 	removed 	1
scalar Floatingscenario.manager.anchorZone[292] 	infected 	1
scalar Floatingscenario.manager.anchorZone[292] 	transit 	3
scalar Floatingscenario.manager.anchorZone[292] 	contactsPerSecond 	0
scalar Floatingscenario.manager.anchorZone[292] 	timeAverage 	36
scalar Floatingscenario.manager.anchorZone[292] 	avgContacts 	0
scalar Floatingscenario.manager.anchorZone[292] 	contactTime 	0
scalar Floatingscenario.manager.anchorZone[292] 	contacts 	0
scalar Floatingscenario.manager.anchorZone[292] 	replicas 	0
scalar Floatingscenario.manager.anchorZone[292] 	xpos 	4400
scalar Floatingscenario.manager.anchorZone[292] 	ypos 	1200
scalar Floatingscenario.manager.anchorZone[292] 	numNodes 	1
scalar Floatingscenario.manager.anchorZone[293] 	criticality 	0
scalar Floatingscenario.manager.anchorZone[293] 	criticality2 	0
scalar Floatingscenario.manager.anchorZone[293] 	criticality3 	0
scalar Floatingscenario.manager.anchorZone[293] 	removed 	1
scalar Floatingscenario.manager.anchorZone[293] 	infected 	1
scalar Floatingscenario.manager.anchorZone[293] 	transit 	11
scalar Floatingscenario.manager.anchorZone[293] 	contactsPerSecond 	0
scalar Floatingscenario.manager.anchorZone[293] 	timeAverage 	27
scalar Floatingscenario.manager.anchorZone[293] 	avgContacts 	0
scalar Floatingscenario.manager.anchorZone[293] 	contactTime 	0
scalar Floatingscenario.manager.anchorZone[293] 	contacts 	0
scalar Floatingscenario.manager.anchorZone[293] 	replicas 	0
scalar Floatingscenario.manager.anchorZone[293] 	xpos 	4400
scalar Floatingscenario.manager.anchorZone[293] 	ypos 	1400
scalar Floatingscenario.manager.anchorZone[293] 	numNodes 	1
scalar Floatingscenario.manager.anchorZone[294] 	criticality 	0
scalar Floatingscenario.manager.anchorZone[294] 	criticality2 	0
scalar Floatingscenario.manager.anchorZone[294] 	criticality3 	0
scalar Floatingscenario.manager.anchorZone[294] 	removed 	1
scalar Floatingscenario.manager.anchorZone[294] 	infected 	1
scalar Floatingscenario.manager.anchorZone[294] 	transit 	3
scalar Floatingscenario.manager.anchorZone[294] 	contactsPerSecond 	0
scalar Floatingscenario.manager.anchorZone[294] 	timeAverage 	11.666666666667
scalar Floatingscenario.manager.anchorZone[294] 	avgContacts 	0
scalar Floatingscenario.manager.anchorZone[294] 	contactTime 	0
scalar Floatingscenario.manager.anchorZone[294] 	contacts 	0
scalar Floatingscenario.manager.anchorZone[294] 	replicas 	0
scalar Floatingscenario.manager.anchorZone[294] 	xpos 	4400
scalar Floatingscenario.manager.anchorZone[294] 	ypos 	1600
scalar Floatingscenario.manager.anchorZone[294] 	numNodes 	0
scalar Floatingscenario.manager.anchorZone[295] 	criticality 	0
scalar Floatingscenario.manager.anchorZone[295] 	criticality2 	0
scalar Floatingscenario.manager.anchorZone[295] 	criticality3 	0
scalar Floatingscenario.manager.anchorZone[295] 	removed 	0
scalar Floatingscenario.manager.anchorZone[295] 	infected 	0
scalar Floatingscenario.manager.anchorZone[295] 	transit 	0
scalar Floatingscenario.manager.anchorZone[295] 	contactsPerSecond 	0
scalar Floatingscenario.manager.anchorZone[295] 	timeAverage 	0
scalar Floatingscenario.manager.anchorZone[295] 	avgContacts 	0
scalar Floatingscenario.manager.anchorZone[295] 	contactTime 	0
scalar Floatingscenario.manager.anchorZone[295] 	contacts 	0
scalar Floatingscenario.manager.anchorZone[295] 	replicas 	0
scalar Floatingscenario.manager.anchorZone[295] 	xpos 	4400
scalar Floatingscenario.manager.anchorZone[295] 	ypos 	1800
scalar Floatingscenario.manager.anchorZone[295] 	numNodes 	0
scalar Floatingscenario.manager.anchorZone[296] 	criticality 	0
scalar Floatingscenario.manager.anchorZone[296] 	criticality2 	0
scalar Floatingscenario.manager.anchorZone[296] 	criticality3 	0
scalar Floatingscenario.manager.anchorZone[296] 	removed 	0
scalar Floatingscenario.manager.anchorZone[296] 	infected 	0
scalar Floatingscenario.manager.anchorZone[296] 	transit 	0
scalar Floatingscenario.manager.anchorZone[296] 	contactsPerSecond 	0
scalar Floatingscenario.manager.anchorZone[296] 	timeAverage 	0
scalar Floatingscenario.manager.anchorZone[296] 	avgContacts 	0
scalar Floatingscenario.manager.anchorZone[296] 	contactTime 	0
scalar Floatingscenario.manager.anchorZone[296] 	contacts 	0
scalar Floatingscenario.manager.anchorZone[296] 	replicas 	0
scalar Floatingscenario.manager.anchorZone[296] 	xpos 	4400
scalar Floatingscenario.manager.anchorZone[296] 	ypos 	2000
scalar Floatingscenario.manager.anchorZone[296] 	numNodes 	0
scalar Floatingscenario.manager.anchorZone[297] 	criticality 	0
scalar Floatingscenario.manager.anchorZone[297] 	criticality2 	0
scalar Floatingscenario.manager.anchorZone[297] 	criticality3 	0
scalar Floatingscenario.manager.anchorZone[297] 	removed 	0
scalar Floatingscenario.manager.anchorZone[297] 	infected 	0
scalar Floatingscenario.manager.anchorZone[297] 	transit 	0
scalar Floatingscenario.manager.anchorZone[297] 	contactsPerSecond 	0
scalar Floatingscenario.manager.anchorZone[297] 	timeAverage 	0
scalar Floatingscenario.manager.anchorZone[297] 	avgContacts 	0
scalar Floatingscenario.manager.anchorZone[297] 	contactTime 	0
scalar Floatingscenario.manager.anchorZone[297] 	contacts 	0
scalar Floatingscenario.manager.anchorZone[297] 	replicas 	0
scalar Floatingscenario.manager.anchorZone[297] 	xpos 	4400
scalar Floatingscenario.manager.anchorZone[297] 	ypos 	2200
scalar Floatingscenario.manager.anchorZone[297] 	numNodes 	0
scalar Floatingscenario.manager.anchorZone[298] 	criticality 	0
scalar Floatingscenario.manager.anchorZone[298] 	criticality2 	0
scalar Floatingscenario.manager.anchorZone[298] 	criticality3 	0
scalar Floatingscenario.manager.anchorZone[298] 	removed 	0
scalar Floatingscenario.manager.anchorZone[298] 	infected 	0
scalar Floatingscenario.manager.anchorZone[298] 	transit 	0
scalar Floatingscenario.manager.anchorZone[298] 	contactsPerSecond 	0
scalar Floatingscenario.manager.anchorZone[298] 	timeAverage 	0
scalar Floatingscenario.manager.anchorZone[298] 	avgContacts 	0
scalar Floatingscenario.manager.anchorZone[298] 	contactTime 	0
scalar Floatingscenario.manager.anchorZone[298] 	contacts 	0
scalar Floatingscenario.manager.anchorZone[298] 	replicas 	0
scalar Floatingscenario.manager.anchorZone[298] 	xpos 	4400
scalar Floatingscenario.manager.anchorZone[298] 	ypos 	2400
scalar Floatingscenario.manager.anchorZone[298] 	numNodes 	0
