version 2
run nodebug-0-20140628-17:37:14-3638
attr configname nodebug
attr datetime 20140628-17:37:14
attr experiment nodebug
attr inifile omnetpp.ini
attr iterationvars ""
attr iterationvars2 $repetition=0
attr measurement ""
attr network Floatingscenario
attr processid 3638
attr repetition 0
attr replication #0
attr resultdir results
attr runnumber 0
attr seedset 0

scalar Floatingscenario.node[6].nic.phy80211p 	busyTime 	3.110662358643e-05
scalar Floatingscenario.node[6].nic.mac1609_4 	ReceivedUnicastPackets 	0
scalar Floatingscenario.node[6].nic.mac1609_4 	ReceivedBroadcasts 	11
scalar Floatingscenario.node[6].nic.mac1609_4 	SentPackets 	3
scalar Floatingscenario.node[6].nic.mac1609_4 	SNIRLostPackets 	0
scalar Floatingscenario.node[6].nic.mac1609_4 	RXTXLostPackets 	0
scalar Floatingscenario.node[6].nic.mac1609_4 	TotalLostPackets 	0
scalar Floatingscenario.node[6].nic.mac1609_4 	DroppedPacketsInMac 	0
scalar Floatingscenario.node[6].nic.mac1609_4 	TooLittleTime 	0
scalar Floatingscenario.node[6].nic.mac1609_4 	TimesIntoBackoff 	3
scalar Floatingscenario.node[6].nic.mac1609_4 	SlotsBackoff 	12
scalar Floatingscenario.node[6].nic.mac1609_4 	NumInternalContention 	0
scalar Floatingscenario.node[6].nic.mac1609_4 	totalBusyTime 	0.005009
scalar Floatingscenario.node[6].mobility 	startTime 	6.1
scalar Floatingscenario.node[6].mobility 	totalTime 	123.7
scalar Floatingscenario.node[6].mobility 	stopTime 	129.9
scalar Floatingscenario.node[6].mobility 	minSpeed 	3.322853211367
scalar Floatingscenario.node[6].mobility 	maxSpeed 	27.779792706172
scalar Floatingscenario.node[6].mobility 	totalDistance 	2155.1619640692
scalar Floatingscenario.node[6].mobility 	totalCO2Emission 	496.13052159401
scalar Floatingscenario.node[12].nic.phy80211p 	busyTime 	0.00019271844660194
scalar Floatingscenario.node[12].nic.mac1609_4 	ReceivedUnicastPackets 	0
scalar Floatingscenario.node[12].nic.mac1609_4 	ReceivedBroadcasts 	49
scalar Floatingscenario.node[12].nic.mac1609_4 	SentPackets 	3
scalar Floatingscenario.node[12].nic.mac1609_4 	SNIRLostPackets 	30
scalar Floatingscenario.node[12].nic.mac1609_4 	RXTXLostPackets 	0
scalar Floatingscenario.node[12].nic.mac1609_4 	TotalLostPackets 	30
scalar Floatingscenario.node[12].nic.mac1609_4 	DroppedPacketsInMac 	0
scalar Floatingscenario.node[12].nic.mac1609_4 	TooLittleTime 	0
scalar Floatingscenario.node[12].nic.mac1609_4 	TimesIntoBackoff 	5
scalar Floatingscenario.node[12].nic.mac1609_4 	SlotsBackoff 	14
scalar Floatingscenario.node[12].nic.mac1609_4 	NumInternalContention 	0
scalar Floatingscenario.node[12].nic.mac1609_4 	totalBusyTime 	0.024482175393
scalar Floatingscenario.node[12].mobility 	startTime 	12.1
scalar Floatingscenario.node[12].mobility 	totalTime 	154.4
scalar Floatingscenario.node[12].mobility 	stopTime 	166.6
scalar Floatingscenario.node[12].mobility 	minSpeed 	3.3091279300715
scalar Floatingscenario.node[12].mobility 	maxSpeed 	18.233286509991
scalar Floatingscenario.node[12].mobility 	totalDistance 	1844.0974221777
scalar Floatingscenario.node[12].mobility 	totalCO2Emission 	446.01474361401
scalar Floatingscenario.node[54].nic.phy80211p 	busyTime 	0.00030464012251149
scalar Floatingscenario.node[54].nic.mac1609_4 	ReceivedUnicastPackets 	0
scalar Floatingscenario.node[54].nic.mac1609_4 	ReceivedBroadcasts 	72
scalar Floatingscenario.node[54].nic.mac1609_4 	SentPackets 	0
scalar Floatingscenario.node[54].nic.mac1609_4 	SNIRLostPackets 	34
scalar Floatingscenario.node[54].nic.mac1609_4 	RXTXLostPackets 	0
scalar Floatingscenario.node[54].nic.mac1609_4 	TotalLostPackets 	34
scalar Floatingscenario.node[54].nic.mac1609_4 	DroppedPacketsInMac 	0
scalar Floatingscenario.node[54].nic.mac1609_4 	TooLittleTime 	0
scalar Floatingscenario.node[54].nic.mac1609_4 	TimesIntoBackoff 	0
scalar Floatingscenario.node[54].nic.mac1609_4 	SlotsBackoff 	0
scalar Floatingscenario.node[54].nic.mac1609_4 	NumInternalContention 	0
scalar Floatingscenario.node[54].nic.mac1609_4 	totalBusyTime 	0.033218493214
scalar Floatingscenario.node[54].mobility 	startTime 	54.1
scalar Floatingscenario.node[54].mobility 	totalTime 	130.5
scalar Floatingscenario.node[54].mobility 	stopTime 	184.7
scalar Floatingscenario.node[54].mobility 	minSpeed 	0.037920676705795
scalar Floatingscenario.node[54].mobility 	maxSpeed 	22.219831926851
scalar Floatingscenario.node[54].mobility 	totalDistance 	1623.8008807067
scalar Floatingscenario.node[54].mobility 	totalCO2Emission 	430.51330591628
scalar Floatingscenario.node[21].nic.phy80211p 	busyTime 	0.00014569369369369
scalar Floatingscenario.node[21].nic.mac1609_4 	ReceivedUnicastPackets 	0
scalar Floatingscenario.node[21].nic.mac1609_4 	ReceivedBroadcasts 	55
scalar Floatingscenario.node[21].nic.mac1609_4 	SentPackets 	0
scalar Floatingscenario.node[21].nic.mac1609_4 	SNIRLostPackets 	11
scalar Floatingscenario.node[21].nic.mac1609_4 	RXTXLostPackets 	0
scalar Floatingscenario.node[21].nic.mac1609_4 	TotalLostPackets 	11
scalar Floatingscenario.node[21].nic.mac1609_4 	DroppedPacketsInMac 	0
scalar Floatingscenario.node[21].nic.mac1609_4 	TooLittleTime 	0
scalar Floatingscenario.node[21].nic.mac1609_4 	TimesIntoBackoff 	0
scalar Floatingscenario.node[21].nic.mac1609_4 	SlotsBackoff 	0
scalar Floatingscenario.node[21].nic.mac1609_4 	NumInternalContention 	0
scalar Floatingscenario.node[21].nic.mac1609_4 	totalBusyTime 	0.023204665283
scalar Floatingscenario.node[21].mobility 	startTime 	21.1
scalar Floatingscenario.node[21].mobility 	totalTime 	166.4
scalar Floatingscenario.node[21].mobility 	stopTime 	187.6
scalar Floatingscenario.node[21].mobility 	minSpeed 	0.90791427083313
scalar Floatingscenario.node[21].mobility 	maxSpeed 	22.21986643774
scalar Floatingscenario.node[21].mobility 	totalDistance 	2332.7324183784
scalar Floatingscenario.node[21].mobility 	totalCO2Emission 	536.43205937297
scalar Floatingscenario.node[26].nic.phy80211p 	busyTime 	9.1679999999999e-05
scalar Floatingscenario.node[26].nic.mac1609_4 	ReceivedUnicastPackets 	0
scalar Floatingscenario.node[26].nic.mac1609_4 	ReceivedBroadcasts 	44
scalar Floatingscenario.node[26].nic.mac1609_4 	SentPackets 	7
scalar Floatingscenario.node[26].nic.mac1609_4 	SNIRLostPackets 	0
scalar Floatingscenario.node[26].nic.mac1609_4 	RXTXLostPackets 	0
scalar Floatingscenario.node[26].nic.mac1609_4 	TotalLostPackets 	0
scalar Floatingscenario.node[26].nic.mac1609_4 	DroppedPacketsInMac 	0
scalar Floatingscenario.node[26].nic.mac1609_4 	TooLittleTime 	0
scalar Floatingscenario.node[26].nic.mac1609_4 	TimesIntoBackoff 	7
scalar Floatingscenario.node[26].nic.mac1609_4 	SlotsBackoff 	19
scalar Floatingscenario.node[26].nic.mac1609_4 	NumInternalContention 	0
scalar Floatingscenario.node[26].nic.mac1609_4 	totalBusyTime 	0.018618
scalar Floatingscenario.node[26].mobility 	startTime 	26.1
scalar Floatingscenario.node[26].mobility 	totalTime 	174.9
scalar Floatingscenario.node[26].mobility 	stopTime 	201.1
scalar Floatingscenario.node[26].mobility 	minSpeed 	0.00091668224797328
scalar Floatingscenario.node[26].mobility 	maxSpeed 	27.779939378768
scalar Floatingscenario.node[26].mobility 	totalDistance 	2559.969017907
scalar Floatingscenario.node[26].mobility 	totalCO2Emission 	764.78578111575
scalar Floatingscenario.node[28].nic.phy80211p 	busyTime 	0.00026100840336134
scalar Floatingscenario.node[28].nic.mac1609_4 	ReceivedUnicastPackets 	0
scalar Floatingscenario.node[28].nic.mac1609_4 	ReceivedBroadcasts 	93
scalar Floatingscenario.node[28].nic.mac1609_4 	SentPackets 	12
scalar Floatingscenario.node[28].nic.mac1609_4 	SNIRLostPackets 	33
scalar Floatingscenario.node[28].nic.mac1609_4 	RXTXLostPackets 	2
scalar Floatingscenario.node[28].nic.mac1609_4 	TotalLostPackets 	35
scalar Floatingscenario.node[28].nic.mac1609_4 	DroppedPacketsInMac 	0
scalar Floatingscenario.node[28].nic.mac1609_4 	TooLittleTime 	0
scalar Floatingscenario.node[28].nic.mac1609_4 	TimesIntoBackoff 	19
scalar Floatingscenario.node[28].nic.mac1609_4 	SlotsBackoff 	62
scalar Floatingscenario.node[28].nic.mac1609_4 	NumInternalContention 	0
scalar Floatingscenario.node[28].nic.mac1609_4 	totalBusyTime 	0.044339574308
scalar Floatingscenario.node[28].mobility 	startTime 	28.1
scalar Floatingscenario.node[28].mobility 	totalTime 	178.4
scalar Floatingscenario.node[28].mobility 	stopTime 	206.6
scalar Floatingscenario.node[28].mobility 	minSpeed 	3.0361245908045e-06
scalar Floatingscenario.node[28].mobility 	maxSpeed 	22.219604025793
scalar Floatingscenario.node[28].mobility 	totalDistance 	2334.073920884
scalar Floatingscenario.node[28].mobility 	totalCO2Emission 	529.32461411239
scalar Floatingscenario.node[49].nic.phy80211p 	busyTime 	0.0004884555984556
scalar Floatingscenario.node[49].nic.mac1609_4 	ReceivedUnicastPackets 	0
scalar Floatingscenario.node[49].nic.mac1609_4 	ReceivedBroadcasts 	159
scalar Floatingscenario.node[49].nic.mac1609_4 	SentPackets 	1
scalar Floatingscenario.node[49].nic.mac1609_4 	SNIRLostPackets 	78
scalar Floatingscenario.node[49].nic.mac1609_4 	RXTXLostPackets 	0
scalar Floatingscenario.node[49].nic.mac1609_4 	TotalLostPackets 	78
scalar Floatingscenario.node[49].nic.mac1609_4 	DroppedPacketsInMac 	0
scalar Floatingscenario.node[49].nic.mac1609_4 	TooLittleTime 	0
scalar Floatingscenario.node[49].nic.mac1609_4 	TimesIntoBackoff 	1
scalar Floatingscenario.node[49].nic.mac1609_4 	SlotsBackoff 	1
scalar Floatingscenario.node[49].nic.mac1609_4 	NumInternalContention 	0
scalar Floatingscenario.node[49].nic.mac1609_4 	totalBusyTime 	0.073685975556
scalar Floatingscenario.node[49].mobility 	startTime 	49.1
scalar Floatingscenario.node[49].mobility 	totalTime 	181.2
scalar Floatingscenario.node[49].mobility 	stopTime 	230.4
scalar Floatingscenario.node[49].mobility 	minSpeed 	5.8568707558644e-14
scalar Floatingscenario.node[49].mobility 	maxSpeed 	22.219639334939
scalar Floatingscenario.node[49].mobility 	totalDistance 	2040.5088056704
scalar Floatingscenario.node[49].mobility 	totalCO2Emission 	533.22462066537
scalar Floatingscenario.node[4].nic.phy80211p 	busyTime 	0.00053550350262697
scalar Floatingscenario.node[4].nic.mac1609_4 	ReceivedUnicastPackets 	0
scalar Floatingscenario.node[4].nic.mac1609_4 	ReceivedBroadcasts 	221
scalar Floatingscenario.node[4].nic.mac1609_4 	SentPackets 	23
scalar Floatingscenario.node[4].nic.mac1609_4 	SNIRLostPackets 	104
scalar Floatingscenario.node[4].nic.mac1609_4 	RXTXLostPackets 	8
scalar Floatingscenario.node[4].nic.mac1609_4 	TotalLostPackets 	112
scalar Floatingscenario.node[4].nic.mac1609_4 	DroppedPacketsInMac 	0
scalar Floatingscenario.node[4].nic.mac1609_4 	TooLittleTime 	0
scalar Floatingscenario.node[4].nic.mac1609_4 	TimesIntoBackoff 	39
scalar Floatingscenario.node[4].nic.mac1609_4 	SlotsBackoff 	134
scalar Floatingscenario.node[4].nic.mac1609_4 	NumInternalContention 	0
scalar Floatingscenario.node[4].nic.mac1609_4 	totalBusyTime 	0.111201529686
scalar Floatingscenario.node[4].mobility 	startTime 	4.1
scalar Floatingscenario.node[4].mobility 	totalTime 	228.3
scalar Floatingscenario.node[4].mobility 	stopTime 	232.5
scalar Floatingscenario.node[4].mobility 	minSpeed 	1.1256911220885e-13
scalar Floatingscenario.node[4].mobility 	maxSpeed 	22.219992804453
scalar Floatingscenario.node[4].mobility 	totalDistance 	2044.6321680316
scalar Floatingscenario.node[4].mobility 	totalCO2Emission 	594.98942255742
scalar Floatingscenario.node[18].nic.phy80211p 	busyTime 	0.0010520853932584
scalar Floatingscenario.node[18].nic.mac1609_4 	ReceivedUnicastPackets 	0
scalar Floatingscenario.node[18].nic.mac1609_4 	ReceivedBroadcasts 	234
scalar Floatingscenario.node[18].nic.mac1609_4 	SentPackets 	27
scalar Floatingscenario.node[18].nic.mac1609_4 	SNIRLostPackets 	383
scalar Floatingscenario.node[18].nic.mac1609_4 	RXTXLostPackets 	0
scalar Floatingscenario.node[18].nic.mac1609_4 	TotalLostPackets 	383
scalar Floatingscenario.node[18].nic.mac1609_4 	DroppedPacketsInMac 	0
scalar Floatingscenario.node[18].nic.mac1609_4 	TooLittleTime 	0
scalar Floatingscenario.node[18].nic.mac1609_4 	TimesIntoBackoff 	27
scalar Floatingscenario.node[18].nic.mac1609_4 	SlotsBackoff 	91
scalar Floatingscenario.node[18].nic.mac1609_4 	NumInternalContention 	0
scalar Floatingscenario.node[18].nic.mac1609_4 	totalBusyTime 	0.148880645036
scalar Floatingscenario.node[18].mobility 	startTime 	18.1
scalar Floatingscenario.node[18].mobility 	totalTime 	222.4
scalar Floatingscenario.node[18].mobility 	stopTime 	240.6
scalar Floatingscenario.node[18].mobility 	minSpeed 	1.1255084684089e-13
scalar Floatingscenario.node[18].mobility 	maxSpeed 	27.779189090237
scalar Floatingscenario.node[18].mobility 	totalDistance 	1970.1110680315
scalar Floatingscenario.node[18].mobility 	totalCO2Emission 	712.12889233273
scalar Floatingscenario.node[98].nic.phy80211p 	busyTime 	0.00018168713639302
scalar Floatingscenario.node[98].nic.mac1609_4 	ReceivedUnicastPackets 	0
scalar Floatingscenario.node[98].nic.mac1609_4 	ReceivedBroadcasts 	72
scalar Floatingscenario.node[98].nic.mac1609_4 	SentPackets 	5
scalar Floatingscenario.node[98].nic.mac1609_4 	SNIRLostPackets 	3
scalar Floatingscenario.node[98].nic.mac1609_4 	RXTXLostPackets 	0
scalar Floatingscenario.node[98].nic.mac1609_4 	TotalLostPackets 	3
scalar Floatingscenario.node[98].nic.mac1609_4 	DroppedPacketsInMac 	0
scalar Floatingscenario.node[98].nic.mac1609_4 	TooLittleTime 	0
scalar Floatingscenario.node[98].nic.mac1609_4 	TimesIntoBackoff 	9
scalar Floatingscenario.node[98].nic.mac1609_4 	SlotsBackoff 	40
scalar Floatingscenario.node[98].nic.mac1609_4 	NumInternalContention 	0
scalar Floatingscenario.node[98].nic.mac1609_4 	totalBusyTime 	0.029230940062
scalar Floatingscenario.node[98].mobility 	startTime 	98.1
scalar Floatingscenario.node[98].mobility 	totalTime 	154.6
scalar Floatingscenario.node[98].mobility 	stopTime 	252.8
scalar Floatingscenario.node[98].mobility 	minSpeed 	9.9416579676567e-07
scalar Floatingscenario.node[98].mobility 	maxSpeed 	26.414952500623
scalar Floatingscenario.node[98].mobility 	totalDistance 	2096.0200480328
scalar Floatingscenario.node[98].mobility 	totalCO2Emission 	627.98738058171
scalar Floatingscenario.node[63].nic.phy80211p 	busyTime 	0.0011027731958763
scalar Floatingscenario.node[63].nic.mac1609_4 	ReceivedUnicastPackets 	0
scalar Floatingscenario.node[63].nic.mac1609_4 	ReceivedBroadcasts 	225
scalar Floatingscenario.node[63].nic.mac1609_4 	SentPackets 	0
scalar Floatingscenario.node[63].nic.mac1609_4 	SNIRLostPackets 	337
scalar Floatingscenario.node[63].nic.mac1609_4 	RXTXLostPackets 	0
scalar Floatingscenario.node[63].nic.mac1609_4 	TotalLostPackets 	337
scalar Floatingscenario.node[63].nic.mac1609_4 	DroppedPacketsInMac 	0
scalar Floatingscenario.node[63].nic.mac1609_4 	TooLittleTime 	0
scalar Floatingscenario.node[63].nic.mac1609_4 	TimesIntoBackoff 	0
scalar Floatingscenario.node[63].nic.mac1609_4 	SlotsBackoff 	0
scalar Floatingscenario.node[63].nic.mac1609_4 	NumInternalContention 	0
scalar Floatingscenario.node[63].nic.mac1609_4 	totalBusyTime 	0.13361381006
scalar Floatingscenario.node[63].mobility 	startTime 	63.1
scalar Floatingscenario.node[63].mobility 	totalTime 	193.9
scalar Floatingscenario.node[63].mobility 	stopTime 	257.1
scalar Floatingscenario.node[63].mobility 	minSpeed 	5.8568350729618e-14
scalar Floatingscenario.node[63].mobility 	maxSpeed 	22.219910423264
scalar Floatingscenario.node[63].mobility 	totalDistance 	2122.5051601356
scalar Floatingscenario.node[63].mobility 	totalCO2Emission 	536.310299488
scalar Floatingscenario.node[10].nic.phy80211p 	busyTime 	6.5728463676062e-05
scalar Floatingscenario.node[10].nic.mac1609_4 	ReceivedUnicastPackets 	0
scalar Floatingscenario.node[10].nic.mac1609_4 	ReceivedBroadcasts 	43
scalar Floatingscenario.node[10].nic.mac1609_4 	SentPackets 	7
scalar Floatingscenario.node[10].nic.mac1609_4 	SNIRLostPackets 	2
scalar Floatingscenario.node[10].nic.mac1609_4 	RXTXLostPackets 	0
scalar Floatingscenario.node[10].nic.mac1609_4 	TotalLostPackets 	2
scalar Floatingscenario.node[10].nic.mac1609_4 	DroppedPacketsInMac 	0
scalar Floatingscenario.node[10].nic.mac1609_4 	TooLittleTime 	0
scalar Floatingscenario.node[10].nic.mac1609_4 	TimesIntoBackoff 	7
scalar Floatingscenario.node[10].nic.mac1609_4 	SlotsBackoff 	8
scalar Floatingscenario.node[10].nic.mac1609_4 	NumInternalContention 	0
scalar Floatingscenario.node[10].nic.mac1609_4 	totalBusyTime 	0.018773889204
scalar Floatingscenario.node[10].mobility 	startTime 	10.1
scalar Floatingscenario.node[10].mobility 	totalTime 	251.8
scalar Floatingscenario.node[10].mobility 	stopTime 	262
scalar Floatingscenario.node[10].mobility 	minSpeed 	5.8544334616887e-14
scalar Floatingscenario.node[10].mobility 	maxSpeed 	27.779937864945
scalar Floatingscenario.node[10].mobility 	totalDistance 	2105.4477925169
scalar Floatingscenario.node[10].mobility 	totalCO2Emission 	717.50452845397
scalar Floatingscenario.node[112].nic.phy80211p 	busyTime 	0.00047341299019608
scalar Floatingscenario.node[112].nic.mac1609_4 	ReceivedUnicastPackets 	0
scalar Floatingscenario.node[112].nic.mac1609_4 	ReceivedBroadcasts 	129
scalar Floatingscenario.node[112].nic.mac1609_4 	SentPackets 	4
scalar Floatingscenario.node[112].nic.mac1609_4 	SNIRLostPackets 	76
scalar Floatingscenario.node[112].nic.mac1609_4 	RXTXLostPackets 	0
scalar Floatingscenario.node[112].nic.mac1609_4 	TotalLostPackets 	76
scalar Floatingscenario.node[112].nic.mac1609_4 	DroppedPacketsInMac 	0
scalar Floatingscenario.node[112].nic.mac1609_4 	TooLittleTime 	0
scalar Floatingscenario.node[112].nic.mac1609_4 	TimesIntoBackoff 	5
scalar Floatingscenario.node[112].nic.mac1609_4 	SlotsBackoff 	19
scalar Floatingscenario.node[112].nic.mac1609_4 	NumInternalContention 	0
scalar Floatingscenario.node[112].nic.mac1609_4 	totalBusyTime 	0.061676877863
scalar Floatingscenario.node[112].mobility 	startTime 	112.1
scalar Floatingscenario.node[112].mobility 	totalTime 	163.1
scalar Floatingscenario.node[112].mobility 	stopTime 	275.3
scalar Floatingscenario.node[112].mobility 	minSpeed 	2.3691921179778e-11
scalar Floatingscenario.node[112].mobility 	maxSpeed 	23.170036759581
scalar Floatingscenario.node[112].mobility 	totalDistance 	2092.0174021757
scalar Floatingscenario.node[112].mobility 	totalCO2Emission 	560.40504546594
scalar Floatingscenario.node[85].nic.phy80211p 	busyTime 	0.00059663249615582
scalar Floatingscenario.node[85].nic.mac1609_4 	ReceivedUnicastPackets 	0
scalar Floatingscenario.node[85].nic.mac1609_4 	ReceivedBroadcasts 	204
scalar Floatingscenario.node[85].nic.mac1609_4 	SentPackets 	11
scalar Floatingscenario.node[85].nic.mac1609_4 	SNIRLostPackets 	103
scalar Floatingscenario.node[85].nic.mac1609_4 	RXTXLostPackets 	1
scalar Floatingscenario.node[85].nic.mac1609_4 	TotalLostPackets 	104
scalar Floatingscenario.node[85].nic.mac1609_4 	DroppedPacketsInMac 	0
scalar Floatingscenario.node[85].nic.mac1609_4 	TooLittleTime 	0
scalar Floatingscenario.node[85].nic.mac1609_4 	TimesIntoBackoff 	14
scalar Floatingscenario.node[85].nic.mac1609_4 	SlotsBackoff 	48
scalar Floatingscenario.node[85].nic.mac1609_4 	NumInternalContention 	0
scalar Floatingscenario.node[85].nic.mac1609_4 	totalBusyTime 	0.098522273698
scalar Floatingscenario.node[85].mobility 	startTime 	85.1
scalar Floatingscenario.node[85].mobility 	totalTime 	195
scalar Floatingscenario.node[85].mobility 	stopTime 	280.2
scalar Floatingscenario.node[85].mobility 	minSpeed 	5.8538022855591e-14
scalar Floatingscenario.node[85].mobility 	maxSpeed 	22.2198083615
scalar Floatingscenario.node[85].mobility 	totalDistance 	1983.1400904011
scalar Floatingscenario.node[85].mobility 	totalCO2Emission 	538.78080906308
scalar Floatingscenario.node[7].nic.phy80211p 	busyTime 	0.00065336608442503
scalar Floatingscenario.node[7].nic.mac1609_4 	ReceivedUnicastPackets 	0
scalar Floatingscenario.node[7].nic.mac1609_4 	ReceivedBroadcasts 	251
scalar Floatingscenario.node[7].nic.mac1609_4 	SentPackets 	5
scalar Floatingscenario.node[7].nic.mac1609_4 	SNIRLostPackets 	222
scalar Floatingscenario.node[7].nic.mac1609_4 	RXTXLostPackets 	0
scalar Floatingscenario.node[7].nic.mac1609_4 	TotalLostPackets 	222
scalar Floatingscenario.node[7].nic.mac1609_4 	DroppedPacketsInMac 	0
scalar Floatingscenario.node[7].nic.mac1609_4 	TooLittleTime 	0
scalar Floatingscenario.node[7].nic.mac1609_4 	TimesIntoBackoff 	5
scalar Floatingscenario.node[7].nic.mac1609_4 	SlotsBackoff 	16
scalar Floatingscenario.node[7].nic.mac1609_4 	NumInternalContention 	0
scalar Floatingscenario.node[7].nic.mac1609_4 	totalBusyTime 	0.131426713513
scalar Floatingscenario.node[7].mobility 	startTime 	7.1
scalar Floatingscenario.node[7].mobility 	totalTime 	274.7
scalar Floatingscenario.node[7].mobility 	stopTime 	281.9
scalar Floatingscenario.node[7].mobility 	minSpeed 	1.1254264191807e-13
scalar Floatingscenario.node[7].mobility 	maxSpeed 	22.219547443429
scalar Floatingscenario.node[7].mobility 	totalDistance 	2719.8281225275
scalar Floatingscenario.node[7].mobility 	totalCO2Emission 	744.88528362123
scalar Floatingscenario.node[37].nic.phy80211p 	busyTime 	0.00087628072957969
scalar Floatingscenario.node[37].nic.mac1609_4 	ReceivedUnicastPackets 	0
scalar Floatingscenario.node[37].nic.mac1609_4 	ReceivedBroadcasts 	231
scalar Floatingscenario.node[37].nic.mac1609_4 	SentPackets 	5
scalar Floatingscenario.node[37].nic.mac1609_4 	SNIRLostPackets 	351
scalar Floatingscenario.node[37].nic.mac1609_4 	RXTXLostPackets 	0
scalar Floatingscenario.node[37].nic.mac1609_4 	TotalLostPackets 	351
scalar Floatingscenario.node[37].nic.mac1609_4 	DroppedPacketsInMac 	0
scalar Floatingscenario.node[37].nic.mac1609_4 	TooLittleTime 	0
scalar Floatingscenario.node[37].nic.mac1609_4 	TimesIntoBackoff 	5
scalar Floatingscenario.node[37].nic.mac1609_4 	SlotsBackoff 	9
scalar Floatingscenario.node[37].nic.mac1609_4 	NumInternalContention 	0
scalar Floatingscenario.node[37].nic.mac1609_4 	totalBusyTime 	0.138173439395
scalar Floatingscenario.node[37].mobility 	startTime 	37.1
scalar Floatingscenario.node[37].mobility 	totalTime 	252.1
scalar Floatingscenario.node[37].mobility 	stopTime 	289.3
scalar Floatingscenario.node[37].mobility 	minSpeed 	0
scalar Floatingscenario.node[37].mobility 	maxSpeed 	27.014232862117
scalar Floatingscenario.node[37].mobility 	totalDistance 	2949.4442097467
scalar Floatingscenario.node[37].mobility 	totalCO2Emission 	797.40368012301
scalar Floatingscenario.node[13].nic.phy80211p 	busyTime 	0.0014949893842888
scalar Floatingscenario.node[13].nic.mac1609_4 	ReceivedUnicastPackets 	0
scalar Floatingscenario.node[13].nic.mac1609_4 	ReceivedBroadcasts 	500
scalar Floatingscenario.node[13].nic.mac1609_4 	SentPackets 	0
scalar Floatingscenario.node[13].nic.mac1609_4 	SNIRLostPackets 	608
scalar Floatingscenario.node[13].nic.mac1609_4 	RXTXLostPackets 	0
scalar Floatingscenario.node[13].nic.mac1609_4 	TotalLostPackets 	608
scalar Floatingscenario.node[13].nic.mac1609_4 	DroppedPacketsInMac 	0
scalar Floatingscenario.node[13].nic.mac1609_4 	TooLittleTime 	0
scalar Floatingscenario.node[13].nic.mac1609_4 	TimesIntoBackoff 	0
scalar Floatingscenario.node[13].nic.mac1609_4 	SlotsBackoff 	0
scalar Floatingscenario.node[13].nic.mac1609_4 	NumInternalContention 	0
scalar Floatingscenario.node[13].nic.mac1609_4 	totalBusyTime 	0.275730947719
scalar Floatingscenario.node[13].mobility 	startTime 	13.1
scalar Floatingscenario.node[13].mobility 	totalTime 	282.5
scalar Floatingscenario.node[13].mobility 	stopTime 	295.7
scalar Floatingscenario.node[13].mobility 	minSpeed 	1.125395290997e-13
scalar Floatingscenario.node[13].mobility 	maxSpeed 	27.779770638815
scalar Floatingscenario.node[13].mobility 	totalDistance 	2032.6251565221
scalar Floatingscenario.node[13].mobility 	totalCO2Emission 	700.53337660398
scalar Floatingscenario.node[87].nic.phy80211p 	busyTime 	0.00085803921568627
scalar Floatingscenario.node[87].nic.mac1609_4 	ReceivedUnicastPackets 	0
scalar Floatingscenario.node[87].nic.mac1609_4 	ReceivedBroadcasts 	226
scalar Floatingscenario.node[87].nic.mac1609_4 	SentPackets 	7
scalar Floatingscenario.node[87].nic.mac1609_4 	SNIRLostPackets 	246
scalar Floatingscenario.node[87].nic.mac1609_4 	RXTXLostPackets 	5
scalar Floatingscenario.node[87].nic.mac1609_4 	TotalLostPackets 	251
scalar Floatingscenario.node[87].nic.mac1609_4 	DroppedPacketsInMac 	0
scalar Floatingscenario.node[87].nic.mac1609_4 	TooLittleTime 	0
scalar Floatingscenario.node[87].nic.mac1609_4 	TimesIntoBackoff 	10
scalar Floatingscenario.node[87].nic.mac1609_4 	SlotsBackoff 	29
scalar Floatingscenario.node[87].nic.mac1609_4 	NumInternalContention 	0
scalar Floatingscenario.node[87].nic.mac1609_4 	totalBusyTime 	0.127219055439
scalar Floatingscenario.node[87].mobility 	startTime 	87.1
scalar Floatingscenario.node[87].mobility 	totalTime 	209
scalar Floatingscenario.node[87].mobility 	stopTime 	296.2
scalar Floatingscenario.node[87].mobility 	minSpeed 	1.125490852184e-13
scalar Floatingscenario.node[87].mobility 	maxSpeed 	22.219768551656
scalar Floatingscenario.node[87].mobility 	totalDistance 	2175.787518934
scalar Floatingscenario.node[87].mobility 	totalCO2Emission 	555.80492468411
scalar Floatingscenario.node[171].nic.phy80211p 	busyTime 	0.0012340888554217
scalar Floatingscenario.node[171].nic.mac1609_4 	ReceivedUnicastPackets 	0
scalar Floatingscenario.node[171].nic.mac1609_4 	ReceivedBroadcasts 	204
scalar Floatingscenario.node[171].nic.mac1609_4 	SentPackets 	1
scalar Floatingscenario.node[171].nic.mac1609_4 	SNIRLostPackets 	227
scalar Floatingscenario.node[171].nic.mac1609_4 	RXTXLostPackets 	0
scalar Floatingscenario.node[171].nic.mac1609_4 	TotalLostPackets 	227
scalar Floatingscenario.node[171].nic.mac1609_4 	DroppedPacketsInMac 	0
scalar Floatingscenario.node[171].nic.mac1609_4 	TooLittleTime 	0
scalar Floatingscenario.node[171].nic.mac1609_4 	TimesIntoBackoff 	1
scalar Floatingscenario.node[171].nic.mac1609_4 	SlotsBackoff 	1
scalar Floatingscenario.node[171].nic.mac1609_4 	NumInternalContention 	0
scalar Floatingscenario.node[171].nic.mac1609_4 	totalBusyTime 	0.111714732254
scalar Floatingscenario.node[171].mobility 	startTime 	173.1
scalar Floatingscenario.node[171].mobility 	totalTime 	132.7
scalar Floatingscenario.node[171].mobility 	stopTime 	305.9
scalar Floatingscenario.node[171].mobility 	minSpeed 	1.3435998615293
scalar Floatingscenario.node[171].mobility 	maxSpeed 	22.212816818459
scalar Floatingscenario.node[171].mobility 	totalDistance 	1611.2298770606
scalar Floatingscenario.node[171].mobility 	totalCO2Emission 	441.44454383145
scalar Floatingscenario.node[135].nic.phy80211p 	busyTime 	0.00095472898230088
scalar Floatingscenario.node[135].nic.mac1609_4 	ReceivedUnicastPackets 	0
scalar Floatingscenario.node[135].nic.mac1609_4 	ReceivedBroadcasts 	231
scalar Floatingscenario.node[135].nic.mac1609_4 	SentPackets 	19
scalar Floatingscenario.node[135].nic.mac1609_4 	SNIRLostPackets 	224
scalar Floatingscenario.node[135].nic.mac1609_4 	RXTXLostPackets 	1
scalar Floatingscenario.node[135].nic.mac1609_4 	TotalLostPackets 	225
scalar Floatingscenario.node[135].nic.mac1609_4 	DroppedPacketsInMac 	0
scalar Floatingscenario.node[135].nic.mac1609_4 	TooLittleTime 	0
scalar Floatingscenario.node[135].nic.mac1609_4 	TimesIntoBackoff 	26
scalar Floatingscenario.node[135].nic.mac1609_4 	SlotsBackoff 	79
scalar Floatingscenario.node[135].nic.mac1609_4 	NumInternalContention 	0
scalar Floatingscenario.node[135].nic.mac1609_4 	totalBusyTime 	0.128288521846
scalar Floatingscenario.node[135].mobility 	startTime 	136.1
scalar Floatingscenario.node[135].mobility 	totalTime 	180.7
scalar Floatingscenario.node[135].mobility 	stopTime 	316.9
scalar Floatingscenario.node[135].mobility 	minSpeed 	1.1486639397983e-12
scalar Floatingscenario.node[135].mobility 	maxSpeed 	22.218769903635
scalar Floatingscenario.node[135].mobility 	totalDistance 	1831.1837755226
scalar Floatingscenario.node[135].mobility 	totalCO2Emission 	498.31225314553
scalar Floatingscenario.node[59].nic.phy80211p 	busyTime 	0.00043770106221548
scalar Floatingscenario.node[59].nic.mac1609_4 	ReceivedUnicastPackets 	0
scalar Floatingscenario.node[59].nic.mac1609_4 	ReceivedBroadcasts 	241
scalar Floatingscenario.node[59].nic.mac1609_4 	SentPackets 	5
scalar Floatingscenario.node[59].nic.mac1609_4 	SNIRLostPackets 	65
scalar Floatingscenario.node[59].nic.mac1609_4 	RXTXLostPackets 	0
scalar Floatingscenario.node[59].nic.mac1609_4 	TotalLostPackets 	65
scalar Floatingscenario.node[59].nic.mac1609_4 	DroppedPacketsInMac 	0
scalar Floatingscenario.node[59].nic.mac1609_4 	TooLittleTime 	0
scalar Floatingscenario.node[59].nic.mac1609_4 	TimesIntoBackoff 	7
scalar Floatingscenario.node[59].nic.mac1609_4 	SlotsBackoff 	26
scalar Floatingscenario.node[59].nic.mac1609_4 	NumInternalContention 	0
scalar Floatingscenario.node[59].nic.mac1609_4 	totalBusyTime 	0.104127711748
scalar Floatingscenario.node[59].mobility 	startTime 	59.1
scalar Floatingscenario.node[59].mobility 	totalTime 	263.5
scalar Floatingscenario.node[59].mobility 	stopTime 	322.7
scalar Floatingscenario.node[59].mobility 	minSpeed 	0
scalar Floatingscenario.node[59].mobility 	maxSpeed 	22.219534714138
scalar Floatingscenario.node[59].mobility 	totalDistance 	2240.5968135762
scalar Floatingscenario.node[59].mobility 	totalCO2Emission 	668.92636850251
scalar Floatingscenario.node[73].nic.phy80211p 	busyTime 	0.00033346954510409
scalar Floatingscenario.node[73].nic.mac1609_4 	ReceivedUnicastPackets 	0
scalar Floatingscenario.node[73].nic.mac1609_4 	ReceivedBroadcasts 	214
scalar Floatingscenario.node[73].nic.mac1609_4 	SentPackets 	13
scalar Floatingscenario.node[73].nic.mac1609_4 	SNIRLostPackets 	16
scalar Floatingscenario.node[73].nic.mac1609_4 	RXTXLostPackets 	0
scalar Floatingscenario.node[73].nic.mac1609_4 	TotalLostPackets 	16
scalar Floatingscenario.node[73].nic.mac1609_4 	DroppedPacketsInMac 	0
scalar Floatingscenario.node[73].nic.mac1609_4 	TooLittleTime 	0
scalar Floatingscenario.node[73].nic.mac1609_4 	TimesIntoBackoff 	17
scalar Floatingscenario.node[73].nic.mac1609_4 	SlotsBackoff 	59
scalar Floatingscenario.node[73].nic.mac1609_4 	NumInternalContention 	0
scalar Floatingscenario.node[73].nic.mac1609_4 	totalBusyTime 	0.088405456841
scalar Floatingscenario.node[73].mobility 	startTime 	73.1
scalar Floatingscenario.node[73].mobility 	totalTime 	259.3
scalar Floatingscenario.node[73].mobility 	stopTime 	332.5
scalar Floatingscenario.node[73].mobility 	minSpeed 	3.4820108056899e-15
scalar Floatingscenario.node[73].mobility 	maxSpeed 	27.774220782476
scalar Floatingscenario.node[73].mobility 	totalDistance 	2536.9417072703
scalar Floatingscenario.node[73].mobility 	totalCO2Emission 	831.16286727116
scalar Floatingscenario.node[58].nic.phy80211p 	busyTime 	0.0011471464555596
scalar Floatingscenario.node[58].nic.mac1609_4 	ReceivedUnicastPackets 	0
scalar Floatingscenario.node[58].nic.mac1609_4 	ReceivedBroadcasts 	492
scalar Floatingscenario.node[58].nic.mac1609_4 	SentPackets 	25
scalar Floatingscenario.node[58].nic.mac1609_4 	SNIRLostPackets 	348
scalar Floatingscenario.node[58].nic.mac1609_4 	RXTXLostPackets 	23
scalar Floatingscenario.node[58].nic.mac1609_4 	TotalLostPackets 	371
scalar Floatingscenario.node[58].nic.mac1609_4 	DroppedPacketsInMac 	0
scalar Floatingscenario.node[58].nic.mac1609_4 	TooLittleTime 	0
scalar Floatingscenario.node[58].nic.mac1609_4 	TimesIntoBackoff 	48
scalar Floatingscenario.node[58].nic.mac1609_4 	SlotsBackoff 	151
scalar Floatingscenario.node[58].nic.mac1609_4 	NumInternalContention 	0
scalar Floatingscenario.node[58].nic.mac1609_4 	totalBusyTime 	0.250371234652
scalar Floatingscenario.node[58].mobility 	startTime 	58.1
scalar Floatingscenario.node[58].mobility 	totalTime 	277.8
scalar Floatingscenario.node[58].mobility 	stopTime 	336
scalar Floatingscenario.node[58].mobility 	minSpeed 	7.912051154609e-15
scalar Floatingscenario.node[58].mobility 	maxSpeed 	27.779666525002
scalar Floatingscenario.node[58].mobility 	totalDistance 	2513.289307554
scalar Floatingscenario.node[58].mobility 	totalCO2Emission 	841.09903254056
scalar Floatingscenario.node[69].nic.phy80211p 	busyTime 	0.001463001497006
scalar Floatingscenario.node[69].nic.mac1609_4 	ReceivedUnicastPackets 	0
scalar Floatingscenario.node[69].nic.mac1609_4 	ReceivedBroadcasts 	422
scalar Floatingscenario.node[69].nic.mac1609_4 	SentPackets 	16
scalar Floatingscenario.node[69].nic.mac1609_4 	SNIRLostPackets 	604
scalar Floatingscenario.node[69].nic.mac1609_4 	RXTXLostPackets 	25
scalar Floatingscenario.node[69].nic.mac1609_4 	TotalLostPackets 	629
scalar Floatingscenario.node[69].nic.mac1609_4 	DroppedPacketsInMac 	0
scalar Floatingscenario.node[69].nic.mac1609_4 	TooLittleTime 	0
scalar Floatingscenario.node[69].nic.mac1609_4 	TimesIntoBackoff 	28
scalar Floatingscenario.node[69].nic.mac1609_4 	SlotsBackoff 	74
scalar Floatingscenario.node[69].nic.mac1609_4 	NumInternalContention 	0
scalar Floatingscenario.node[69].nic.mac1609_4 	totalBusyTime 	0.25010592364
scalar Floatingscenario.node[69].mobility 	startTime 	69.1
scalar Floatingscenario.node[69].mobility 	totalTime 	267.1
scalar Floatingscenario.node[69].mobility 	stopTime 	336.3
scalar Floatingscenario.node[69].mobility 	minSpeed 	1.125526555781e-13
scalar Floatingscenario.node[69].mobility 	maxSpeed 	26.73636947711
scalar Floatingscenario.node[69].mobility 	totalDistance 	2307.7979319485
scalar Floatingscenario.node[69].mobility 	totalCO2Emission 	821.97358190662
scalar Floatingscenario.node[29].nic.phy80211p 	busyTime 	0.00017035133376708
scalar Floatingscenario.node[29].nic.mac1609_4 	ReceivedUnicastPackets 	0
scalar Floatingscenario.node[29].nic.mac1609_4 	ReceivedBroadcasts 	133
scalar Floatingscenario.node[29].nic.mac1609_4 	SentPackets 	7
scalar Floatingscenario.node[29].nic.mac1609_4 	SNIRLostPackets 	9
scalar Floatingscenario.node[29].nic.mac1609_4 	RXTXLostPackets 	0
scalar Floatingscenario.node[29].nic.mac1609_4 	TotalLostPackets 	9
scalar Floatingscenario.node[29].nic.mac1609_4 	DroppedPacketsInMac 	0
scalar Floatingscenario.node[29].nic.mac1609_4 	TooLittleTime 	0
scalar Floatingscenario.node[29].nic.mac1609_4 	TimesIntoBackoff 	11
scalar Floatingscenario.node[29].nic.mac1609_4 	SlotsBackoff 	19
scalar Floatingscenario.node[29].nic.mac1609_4 	NumInternalContention 	0
scalar Floatingscenario.node[29].nic.mac1609_4 	totalBusyTime 	0.053636249259
scalar Floatingscenario.node[29].mobility 	startTime 	29.1
scalar Floatingscenario.node[29].mobility 	totalTime 	307.3
scalar Floatingscenario.node[29].mobility 	stopTime 	336.5
scalar Floatingscenario.node[29].mobility 	minSpeed 	7.9125953007712e-15
scalar Floatingscenario.node[29].mobility 	maxSpeed 	27.779416507462
scalar Floatingscenario.node[29].mobility 	totalDistance 	2903.1332092552
scalar Floatingscenario.node[29].mobility 	totalCO2Emission 	915.69652072574
scalar Floatingscenario.node[27].nic.phy80211p 	busyTime 	0.0028684120037511
scalar Floatingscenario.node[27].nic.mac1609_4 	ReceivedUnicastPackets 	0
scalar Floatingscenario.node[27].nic.mac1609_4 	ReceivedBroadcasts 	791
scalar Floatingscenario.node[27].nic.mac1609_4 	SentPackets 	52
scalar Floatingscenario.node[27].nic.mac1609_4 	SNIRLostPackets 	1614
scalar Floatingscenario.node[27].nic.mac1609_4 	RXTXLostPackets 	67
scalar Floatingscenario.node[27].nic.mac1609_4 	TotalLostPackets 	1681
scalar Floatingscenario.node[27].nic.mac1609_4 	DroppedPacketsInMac 	0
scalar Floatingscenario.node[27].nic.mac1609_4 	TooLittleTime 	0
scalar Floatingscenario.node[27].nic.mac1609_4 	TimesIntoBackoff 	86
scalar Floatingscenario.node[27].nic.mac1609_4 	SlotsBackoff 	292
scalar Floatingscenario.node[27].nic.mac1609_4 	NumInternalContention 	0
scalar Floatingscenario.node[27].nic.mac1609_4 	totalBusyTime 	0.488683256758
scalar Floatingscenario.node[27].mobility 	startTime 	27.1
scalar Floatingscenario.node[27].mobility 	totalTime 	319.8
scalar Floatingscenario.node[27].mobility 	stopTime 	347
scalar Floatingscenario.node[27].mobility 	minSpeed 	5.8539711487408e-14
scalar Floatingscenario.node[27].mobility 	maxSpeed 	24.966851079064
scalar Floatingscenario.node[27].mobility 	totalDistance 	2274.3376131808
scalar Floatingscenario.node[27].mobility 	totalCO2Emission 	810.10321285701
scalar Floatingscenario.node[119].nic.phy80211p 	busyTime 	0.0018325138239048
scalar Floatingscenario.node[119].nic.mac1609_4 	ReceivedUnicastPackets 	0
scalar Floatingscenario.node[119].nic.mac1609_4 	ReceivedBroadcasts 	455
scalar Floatingscenario.node[119].nic.mac1609_4 	SentPackets 	14
scalar Floatingscenario.node[119].nic.mac1609_4 	SNIRLostPackets 	673
scalar Floatingscenario.node[119].nic.mac1609_4 	RXTXLostPackets 	7
scalar Floatingscenario.node[119].nic.mac1609_4 	TotalLostPackets 	680
scalar Floatingscenario.node[119].nic.mac1609_4 	DroppedPacketsInMac 	0
scalar Floatingscenario.node[119].nic.mac1609_4 	TooLittleTime 	0
scalar Floatingscenario.node[119].nic.mac1609_4 	TimesIntoBackoff 	19
scalar Floatingscenario.node[119].nic.mac1609_4 	SlotsBackoff 	63
scalar Floatingscenario.node[119].nic.mac1609_4 	NumInternalContention 	0
scalar Floatingscenario.node[119].nic.mac1609_4 	totalBusyTime 	0.283513365037
scalar Floatingscenario.node[119].mobility 	startTime 	120.1
scalar Floatingscenario.node[119].mobility 	totalTime 	235
scalar Floatingscenario.node[119].mobility 	stopTime 	355.2
scalar Floatingscenario.node[119].mobility 	minSpeed 	5.8549992428594e-14
scalar Floatingscenario.node[119].mobility 	maxSpeed 	22.202630538866
scalar Floatingscenario.node[119].mobility 	totalDistance 	2005.4634260135
scalar Floatingscenario.node[119].mobility 	totalCO2Emission 	602.52647833997
scalar Floatingscenario.node[201].nic.phy80211p 	busyTime 	0.0028992142857144
scalar Floatingscenario.node[201].nic.mac1609_4 	ReceivedUnicastPackets 	0
scalar Floatingscenario.node[201].nic.mac1609_4 	ReceivedBroadcasts 	371
scalar Floatingscenario.node[201].nic.mac1609_4 	SentPackets 	0
scalar Floatingscenario.node[201].nic.mac1609_4 	SNIRLostPackets 	796
scalar Floatingscenario.node[201].nic.mac1609_4 	RXTXLostPackets 	0
scalar Floatingscenario.node[201].nic.mac1609_4 	TotalLostPackets 	796
scalar Floatingscenario.node[201].nic.mac1609_4 	DroppedPacketsInMac 	0
scalar Floatingscenario.node[201].nic.mac1609_4 	TooLittleTime 	0
scalar Floatingscenario.node[201].nic.mac1609_4 	TimesIntoBackoff 	0
scalar Floatingscenario.node[201].nic.mac1609_4 	SlotsBackoff 	0
scalar Floatingscenario.node[201].nic.mac1609_4 	NumInternalContention 	0
scalar Floatingscenario.node[201].nic.mac1609_4 	totalBusyTime 	0.245199988773
scalar Floatingscenario.node[201].mobility 	startTime 	203.1
scalar Floatingscenario.node[201].mobility 	totalTime 	153.9
scalar Floatingscenario.node[201].mobility 	stopTime 	357.1
scalar Floatingscenario.node[201].mobility 	minSpeed 	0.0024457797658159
scalar Floatingscenario.node[201].mobility 	maxSpeed 	22.219658792592
scalar Floatingscenario.node[201].mobility 	totalDistance 	1816.8405110904
scalar Floatingscenario.node[201].mobility 	totalCO2Emission 	466.03406153926
scalar Floatingscenario.node[51].nic.phy80211p 	busyTime 	0.00107038449215
scalar Floatingscenario.node[51].nic.mac1609_4 	ReceivedUnicastPackets 	0
scalar Floatingscenario.node[51].nic.mac1609_4 	ReceivedBroadcasts 	566
scalar Floatingscenario.node[51].nic.mac1609_4 	SentPackets 	30
scalar Floatingscenario.node[51].nic.mac1609_4 	SNIRLostPackets 	317
scalar Floatingscenario.node[51].nic.mac1609_4 	RXTXLostPackets 	38
scalar Floatingscenario.node[51].nic.mac1609_4 	TotalLostPackets 	355
scalar Floatingscenario.node[51].nic.mac1609_4 	DroppedPacketsInMac 	0
scalar Floatingscenario.node[51].nic.mac1609_4 	TooLittleTime 	0
scalar Floatingscenario.node[51].nic.mac1609_4 	TimesIntoBackoff 	43
scalar Floatingscenario.node[51].nic.mac1609_4 	SlotsBackoff 	132
scalar Floatingscenario.node[51].nic.mac1609_4 	NumInternalContention 	0
scalar Floatingscenario.node[51].nic.mac1609_4 	totalBusyTime 	0.270931178971
scalar Floatingscenario.node[51].mobility 	startTime 	51.1
scalar Floatingscenario.node[51].mobility 	totalTime 	312
scalar Floatingscenario.node[51].mobility 	stopTime 	363.2
scalar Floatingscenario.node[51].mobility 	minSpeed 	5.8538561236734e-14
scalar Floatingscenario.node[51].mobility 	maxSpeed 	27.779798230503
scalar Floatingscenario.node[51].mobility 	totalDistance 	2345.0910401115
scalar Floatingscenario.node[51].mobility 	totalCO2Emission 	841.52680898524
scalar Floatingscenario.node[100].nic.phy80211p 	busyTime 	0.0041377509433962
scalar Floatingscenario.node[100].nic.mac1609_4 	ReceivedUnicastPackets 	0
scalar Floatingscenario.node[100].nic.mac1609_4 	ReceivedBroadcasts 	740
scalar Floatingscenario.node[100].nic.mac1609_4 	SentPackets 	24
scalar Floatingscenario.node[100].nic.mac1609_4 	SNIRLostPackets 	2132
scalar Floatingscenario.node[100].nic.mac1609_4 	RXTXLostPackets 	24
scalar Floatingscenario.node[100].nic.mac1609_4 	TotalLostPackets 	2156
scalar Floatingscenario.node[100].nic.mac1609_4 	DroppedPacketsInMac 	0
scalar Floatingscenario.node[100].nic.mac1609_4 	TooLittleTime 	0
scalar Floatingscenario.node[100].nic.mac1609_4 	TimesIntoBackoff 	41
scalar Floatingscenario.node[100].nic.mac1609_4 	SlotsBackoff 	133
scalar Floatingscenario.node[100].nic.mac1609_4 	NumInternalContention 	0
scalar Floatingscenario.node[100].nic.mac1609_4 	totalBusyTime 	0.511403503703
scalar Floatingscenario.node[100].mobility 	startTime 	100.1
scalar Floatingscenario.node[100].mobility 	totalTime 	264.9
scalar Floatingscenario.node[100].mobility 	stopTime 	365.1
scalar Floatingscenario.node[100].mobility 	minSpeed 	5.8541343818083e-14
scalar Floatingscenario.node[100].mobility 	maxSpeed 	22.216953487792
scalar Floatingscenario.node[100].mobility 	totalDistance 	2055.3339659653
scalar Floatingscenario.node[100].mobility 	totalCO2Emission 	729.35117289002
scalar Floatingscenario.node[194].nic.phy80211p 	busyTime 	0.00026173812282735
scalar Floatingscenario.node[194].nic.mac1609_4 	ReceivedUnicastPackets 	0
scalar Floatingscenario.node[194].nic.mac1609_4 	ReceivedBroadcasts 	112
scalar Floatingscenario.node[194].nic.mac1609_4 	SentPackets 	2
scalar Floatingscenario.node[194].nic.mac1609_4 	SNIRLostPackets 	8
scalar Floatingscenario.node[194].nic.mac1609_4 	RXTXLostPackets 	0
scalar Floatingscenario.node[194].nic.mac1609_4 	TotalLostPackets 	8
scalar Floatingscenario.node[194].nic.mac1609_4 	DroppedPacketsInMac 	0
scalar Floatingscenario.node[194].nic.mac1609_4 	TooLittleTime 	0
scalar Floatingscenario.node[194].nic.mac1609_4 	TimesIntoBackoff 	2
scalar Floatingscenario.node[194].nic.mac1609_4 	SlotsBackoff 	9
scalar Floatingscenario.node[194].nic.mac1609_4 	NumInternalContention 	0
scalar Floatingscenario.node[194].nic.mac1609_4 	totalBusyTime 	0.044641471775
scalar Floatingscenario.node[194].mobility 	startTime 	195.1
scalar Floatingscenario.node[194].mobility 	totalTime 	172.5
scalar Floatingscenario.node[194].mobility 	stopTime 	367.7
scalar Floatingscenario.node[194].mobility 	minSpeed 	6.7145890396223e-13
scalar Floatingscenario.node[194].mobility 	maxSpeed 	27.645576170503
scalar Floatingscenario.node[194].mobility 	totalDistance 	1978.41510338
scalar Floatingscenario.node[194].mobility 	totalCO2Emission 	630.6584322249
scalar Floatingscenario.node[151].nic.phy80211p 	busyTime 	0.00085696190913263
scalar Floatingscenario.node[151].nic.mac1609_4 	ReceivedUnicastPackets 	0
scalar Floatingscenario.node[151].nic.mac1609_4 	ReceivedBroadcasts 	214
scalar Floatingscenario.node[151].nic.mac1609_4 	SentPackets 	1
scalar Floatingscenario.node[151].nic.mac1609_4 	SNIRLostPackets 	278
scalar Floatingscenario.node[151].nic.mac1609_4 	RXTXLostPackets 	0
scalar Floatingscenario.node[151].nic.mac1609_4 	TotalLostPackets 	278
scalar Floatingscenario.node[151].nic.mac1609_4 	DroppedPacketsInMac 	0
scalar Floatingscenario.node[151].nic.mac1609_4 	TooLittleTime 	0
scalar Floatingscenario.node[151].nic.mac1609_4 	TimesIntoBackoff 	1
scalar Floatingscenario.node[151].nic.mac1609_4 	SlotsBackoff 	2
scalar Floatingscenario.node[151].nic.mac1609_4 	NumInternalContention 	0
scalar Floatingscenario.node[151].nic.mac1609_4 	totalBusyTime 	0.120185172647
scalar Floatingscenario.node[151].mobility 	startTime 	152.1
scalar Floatingscenario.node[151].mobility 	totalTime 	217.8
scalar Floatingscenario.node[151].mobility 	stopTime 	370
scalar Floatingscenario.node[151].mobility 	minSpeed 	0.0001458364087869
scalar Floatingscenario.node[151].mobility 	maxSpeed 	27.759289474259
scalar Floatingscenario.node[151].mobility 	totalDistance 	2889.8411981505
scalar Floatingscenario.node[151].mobility 	totalCO2Emission 	790.70214673583
scalar Floatingscenario.node[11].nic.phy80211p 	busyTime 	0.0020645646221248
scalar Floatingscenario.node[11].nic.mac1609_4 	ReceivedUnicastPackets 	0
scalar Floatingscenario.node[11].nic.mac1609_4 	ReceivedBroadcasts 	760
scalar Floatingscenario.node[11].nic.mac1609_4 	SentPackets 	61
scalar Floatingscenario.node[11].nic.mac1609_4 	SNIRLostPackets 	1219
scalar Floatingscenario.node[11].nic.mac1609_4 	RXTXLostPackets 	126
scalar Floatingscenario.node[11].nic.mac1609_4 	TotalLostPackets 	1345
scalar Floatingscenario.node[11].nic.mac1609_4 	DroppedPacketsInMac 	0
scalar Floatingscenario.node[11].nic.mac1609_4 	TooLittleTime 	0
scalar Floatingscenario.node[11].nic.mac1609_4 	TimesIntoBackoff 	108
scalar Floatingscenario.node[11].nic.mac1609_4 	SlotsBackoff 	387
scalar Floatingscenario.node[11].nic.mac1609_4 	NumInternalContention 	0
scalar Floatingscenario.node[11].nic.mac1609_4 	totalBusyTime 	0.450293501212
scalar Floatingscenario.node[11].mobility 	startTime 	11.1
scalar Floatingscenario.node[11].mobility 	totalTime 	365.1
scalar Floatingscenario.node[11].mobility 	stopTime 	376.3
scalar Floatingscenario.node[11].mobility 	minSpeed 	5.8541388420277e-14
scalar Floatingscenario.node[11].mobility 	maxSpeed 	26.171706335485
scalar Floatingscenario.node[11].mobility 	totalDistance 	2286.4754585061
scalar Floatingscenario.node[11].mobility 	totalCO2Emission 	907.63427812766
scalar Floatingscenario.node[47].nic.phy80211p 	busyTime 	0.0026059298457816
scalar Floatingscenario.node[47].nic.mac1609_4 	ReceivedUnicastPackets 	0
scalar Floatingscenario.node[47].nic.mac1609_4 	ReceivedBroadcasts 	769
scalar Floatingscenario.node[47].nic.mac1609_4 	SentPackets 	40
scalar Floatingscenario.node[47].nic.mac1609_4 	SNIRLostPackets 	1492
scalar Floatingscenario.node[47].nic.mac1609_4 	RXTXLostPackets 	52
scalar Floatingscenario.node[47].nic.mac1609_4 	TotalLostPackets 	1544
scalar Floatingscenario.node[47].nic.mac1609_4 	DroppedPacketsInMac 	0
scalar Floatingscenario.node[47].nic.mac1609_4 	TooLittleTime 	0
scalar Floatingscenario.node[47].nic.mac1609_4 	TimesIntoBackoff 	73
scalar Floatingscenario.node[47].nic.mac1609_4 	SlotsBackoff 	309
scalar Floatingscenario.node[47].nic.mac1609_4 	NumInternalContention 	0
scalar Floatingscenario.node[47].nic.mac1609_4 	totalBusyTime 	0.46252206911
scalar Floatingscenario.node[47].mobility 	startTime 	47.1
scalar Floatingscenario.node[47].mobility 	totalTime 	330.6
scalar Floatingscenario.node[47].mobility 	stopTime 	377.8
scalar Floatingscenario.node[47].mobility 	minSpeed 	5.8629354028025e-14
scalar Floatingscenario.node[47].mobility 	maxSpeed 	27.773681995145
scalar Floatingscenario.node[47].mobility 	totalDistance 	3226.2684887949
scalar Floatingscenario.node[47].mobility 	totalCO2Emission 	1081.7046828646
scalar Floatingscenario.node[1].nic.phy80211p 	busyTime 	0.00015674163179916
scalar Floatingscenario.node[1].nic.mac1609_4 	ReceivedUnicastPackets 	0
scalar Floatingscenario.node[1].nic.mac1609_4 	ReceivedBroadcasts 	153
scalar Floatingscenario.node[1].nic.mac1609_4 	SentPackets 	18
scalar Floatingscenario.node[1].nic.mac1609_4 	SNIRLostPackets 	9
scalar Floatingscenario.node[1].nic.mac1609_4 	RXTXLostPackets 	0
scalar Floatingscenario.node[1].nic.mac1609_4 	TotalLostPackets 	9
scalar Floatingscenario.node[1].nic.mac1609_4 	DroppedPacketsInMac 	0
scalar Floatingscenario.node[1].nic.mac1609_4 	TooLittleTime 	0
scalar Floatingscenario.node[1].nic.mac1609_4 	TimesIntoBackoff 	25
scalar Floatingscenario.node[1].nic.mac1609_4 	SlotsBackoff 	108
scalar Floatingscenario.node[1].nic.mac1609_4 	NumInternalContention 	0
scalar Floatingscenario.node[1].nic.mac1609_4 	totalBusyTime 	0.065454258552
scalar Floatingscenario.node[1].mobility 	startTime 	1.1
scalar Floatingscenario.node[1].mobility 	totalTime 	382.3
scalar Floatingscenario.node[1].mobility 	stopTime 	383.5
scalar Floatingscenario.node[1].mobility 	minSpeed 	0
scalar Floatingscenario.node[1].mobility 	maxSpeed 	27.779942976178
scalar Floatingscenario.node[1].mobility 	totalDistance 	2074.7641942935
scalar Floatingscenario.node[1].mobility 	totalCO2Emission 	955.74072522556
scalar Floatingscenario.node[40].nic.phy80211p 	busyTime 	0.0041872142032334
scalar Floatingscenario.node[40].nic.mac1609_4 	ReceivedUnicastPackets 	0
scalar Floatingscenario.node[40].nic.mac1609_4 	ReceivedBroadcasts 	1013
scalar Floatingscenario.node[40].nic.mac1609_4 	SentPackets 	75
scalar Floatingscenario.node[40].nic.mac1609_4 	SNIRLostPackets 	2782
scalar Floatingscenario.node[40].nic.mac1609_4 	RXTXLostPackets 	97
scalar Floatingscenario.node[40].nic.mac1609_4 	TotalLostPackets 	2879
scalar Floatingscenario.node[40].nic.mac1609_4 	DroppedPacketsInMac 	0
scalar Floatingscenario.node[40].nic.mac1609_4 	TooLittleTime 	0
scalar Floatingscenario.node[40].nic.mac1609_4 	TimesIntoBackoff 	140
scalar Floatingscenario.node[40].nic.mac1609_4 	SlotsBackoff 	475
scalar Floatingscenario.node[40].nic.mac1609_4 	NumInternalContention 	0
scalar Floatingscenario.node[40].nic.mac1609_4 	totalBusyTime 	0.715517155095
scalar Floatingscenario.node[40].mobility 	startTime 	40.1
scalar Floatingscenario.node[40].mobility 	totalTime 	346.3
scalar Floatingscenario.node[40].mobility 	stopTime 	386.5
scalar Floatingscenario.node[40].mobility 	minSpeed 	5.8542990554195e-14
scalar Floatingscenario.node[40].mobility 	maxSpeed 	27.779228191599
scalar Floatingscenario.node[40].mobility 	totalDistance 	2574.816569309
scalar Floatingscenario.node[40].mobility 	totalCO2Emission 	906.4167022297
scalar Floatingscenario.node[19].nic.phy80211p 	busyTime 	0.0023531973898858
scalar Floatingscenario.node[19].nic.mac1609_4 	ReceivedUnicastPackets 	0
scalar Floatingscenario.node[19].nic.mac1609_4 	ReceivedBroadcasts 	892
scalar Floatingscenario.node[19].nic.mac1609_4 	SentPackets 	77
scalar Floatingscenario.node[19].nic.mac1609_4 	SNIRLostPackets 	1382
scalar Floatingscenario.node[19].nic.mac1609_4 	RXTXLostPackets 	75
scalar Floatingscenario.node[19].nic.mac1609_4 	TotalLostPackets 	1457
scalar Floatingscenario.node[19].nic.mac1609_4 	DroppedPacketsInMac 	0
scalar Floatingscenario.node[19].nic.mac1609_4 	TooLittleTime 	0
scalar Floatingscenario.node[19].nic.mac1609_4 	TimesIntoBackoff 	124
scalar Floatingscenario.node[19].nic.mac1609_4 	SlotsBackoff 	433
scalar Floatingscenario.node[19].nic.mac1609_4 	NumInternalContention 	0
scalar Floatingscenario.node[19].nic.mac1609_4 	totalBusyTime 	0.522600432718
scalar Floatingscenario.node[19].mobility 	startTime 	19.1
scalar Floatingscenario.node[19].mobility 	totalTime 	367.7
scalar Floatingscenario.node[19].mobility 	stopTime 	386.9
scalar Floatingscenario.node[19].mobility 	minSpeed 	3.1683563623111e-14
scalar Floatingscenario.node[19].mobility 	maxSpeed 	27.779419603059
scalar Floatingscenario.node[19].mobility 	totalDistance 	2366.3007716754
scalar Floatingscenario.node[19].mobility 	totalCO2Emission 	935.01245170537
scalar Floatingscenario.node[122].nic.phy80211p 	busyTime 	0.00061046460176991
scalar Floatingscenario.node[122].nic.mac1609_4 	ReceivedUnicastPackets 	0
scalar Floatingscenario.node[122].nic.mac1609_4 	ReceivedBroadcasts 	335
scalar Floatingscenario.node[122].nic.mac1609_4 	SentPackets 	3
scalar Floatingscenario.node[122].nic.mac1609_4 	SNIRLostPackets 	103
scalar Floatingscenario.node[122].nic.mac1609_4 	RXTXLostPackets 	0
scalar Floatingscenario.node[122].nic.mac1609_4 	TotalLostPackets 	103
scalar Floatingscenario.node[122].nic.mac1609_4 	DroppedPacketsInMac 	0
scalar Floatingscenario.node[122].nic.mac1609_4 	TooLittleTime 	0
scalar Floatingscenario.node[122].nic.mac1609_4 	TimesIntoBackoff 	3
scalar Floatingscenario.node[122].nic.mac1609_4 	SlotsBackoff 	12
scalar Floatingscenario.node[122].nic.mac1609_4 	NumInternalContention 	0
scalar Floatingscenario.node[122].nic.mac1609_4 	totalBusyTime 	0.144005836489
scalar Floatingscenario.node[122].mobility 	startTime 	123.1
scalar Floatingscenario.node[122].mobility 	totalTime 	271.1
scalar Floatingscenario.node[122].mobility 	stopTime 	394.3
scalar Floatingscenario.node[122].mobility 	minSpeed 	5.8542302373582e-14
scalar Floatingscenario.node[122].mobility 	maxSpeed 	22.219592555317
scalar Floatingscenario.node[122].mobility 	totalDistance 	2720.4531843389
scalar Floatingscenario.node[122].mobility 	totalCO2Emission 	821.46141770349
scalar Floatingscenario.node[105].nic.phy80211p 	busyTime 	0.0038738722966014
scalar Floatingscenario.node[105].nic.mac1609_4 	ReceivedUnicastPackets 	0
scalar Floatingscenario.node[105].nic.mac1609_4 	ReceivedBroadcasts 	745
scalar Floatingscenario.node[105].nic.mac1609_4 	SentPackets 	4
scalar Floatingscenario.node[105].nic.mac1609_4 	SNIRLostPackets 	2210
scalar Floatingscenario.node[105].nic.mac1609_4 	RXTXLostPackets 	0
scalar Floatingscenario.node[105].nic.mac1609_4 	TotalLostPackets 	2210
scalar Floatingscenario.node[105].nic.mac1609_4 	DroppedPacketsInMac 	0
scalar Floatingscenario.node[105].nic.mac1609_4 	TooLittleTime 	0
scalar Floatingscenario.node[105].nic.mac1609_4 	TimesIntoBackoff 	4
scalar Floatingscenario.node[105].nic.mac1609_4 	SlotsBackoff 	13
scalar Floatingscenario.node[105].nic.mac1609_4 	NumInternalContention 	0
scalar Floatingscenario.node[105].nic.mac1609_4 	totalBusyTime 	0.513684792998
scalar Floatingscenario.node[105].mobility 	startTime 	105.1
scalar Floatingscenario.node[105].mobility 	totalTime 	291.2
scalar Floatingscenario.node[105].mobility 	stopTime 	396.4
scalar Floatingscenario.node[105].mobility 	minSpeed 	5.8537384807791e-14
scalar Floatingscenario.node[105].mobility 	maxSpeed 	22.219808024042
scalar Floatingscenario.node[105].mobility 	totalDistance 	2502.0893269687
scalar Floatingscenario.node[105].mobility 	totalCO2Emission 	807.3264732287
scalar Floatingscenario.node[16].nic.phy80211p 	busyTime 	0.0027136668385765
scalar Floatingscenario.node[16].nic.mac1609_4 	ReceivedUnicastPackets 	0
scalar Floatingscenario.node[16].nic.mac1609_4 	ReceivedBroadcasts 	778
scalar Floatingscenario.node[16].nic.mac1609_4 	SentPackets 	79
scalar Floatingscenario.node[16].nic.mac1609_4 	SNIRLostPackets 	1982
scalar Floatingscenario.node[16].nic.mac1609_4 	RXTXLostPackets 	135
scalar Floatingscenario.node[16].nic.mac1609_4 	TotalLostPackets 	2117
scalar Floatingscenario.node[16].nic.mac1609_4 	DroppedPacketsInMac 	0
scalar Floatingscenario.node[16].nic.mac1609_4 	TooLittleTime 	0
scalar Floatingscenario.node[16].nic.mac1609_4 	TimesIntoBackoff 	139
scalar Floatingscenario.node[16].nic.mac1609_4 	SlotsBackoff 	482
scalar Floatingscenario.node[16].nic.mac1609_4 	NumInternalContention 	0
scalar Floatingscenario.node[16].nic.mac1609_4 	totalBusyTime 	0.543377693506
scalar Floatingscenario.node[16].mobility 	startTime 	16.1
scalar Floatingscenario.node[16].mobility 	totalTime 	387.7
scalar Floatingscenario.node[16].mobility 	stopTime 	403.9
scalar Floatingscenario.node[16].mobility 	minSpeed 	0
scalar Floatingscenario.node[16].mobility 	maxSpeed 	22.218938840088
scalar Floatingscenario.node[16].mobility 	totalDistance 	2935.3059528875
scalar Floatingscenario.node[16].mobility 	totalCO2Emission 	958.55013728721
scalar Floatingscenario.node[93].nic.phy80211p 	busyTime 	0.0031478658536585
scalar Floatingscenario.node[93].nic.mac1609_4 	ReceivedUnicastPackets 	0
scalar Floatingscenario.node[93].nic.mac1609_4 	ReceivedBroadcasts 	791
scalar Floatingscenario.node[93].nic.mac1609_4 	SentPackets 	52
scalar Floatingscenario.node[93].nic.mac1609_4 	SNIRLostPackets 	1780
scalar Floatingscenario.node[93].nic.mac1609_4 	RXTXLostPackets 	121
scalar Floatingscenario.node[93].nic.mac1609_4 	TotalLostPackets 	1901
scalar Floatingscenario.node[93].nic.mac1609_4 	DroppedPacketsInMac 	0
scalar Floatingscenario.node[93].nic.mac1609_4 	TooLittleTime 	0
scalar Floatingscenario.node[93].nic.mac1609_4 	TimesIntoBackoff 	91
scalar Floatingscenario.node[93].nic.mac1609_4 	SlotsBackoff 	318
scalar Floatingscenario.node[93].nic.mac1609_4 	NumInternalContention 	0
scalar Floatingscenario.node[93].nic.mac1609_4 	totalBusyTime 	0.50422021201
scalar Floatingscenario.node[93].mobility 	startTime 	93.1
scalar Floatingscenario.node[93].mobility 	totalTime 	311.5
scalar Floatingscenario.node[93].mobility 	stopTime 	404.7
scalar Floatingscenario.node[93].mobility 	minSpeed 	5.855514127259e-14
scalar Floatingscenario.node[93].mobility 	maxSpeed 	27.779047975631
scalar Floatingscenario.node[93].mobility 	totalDistance 	3448.1443580662
scalar Floatingscenario.node[93].mobility 	totalCO2Emission 	1044.9438850291
scalar Floatingscenario.node[142].nic.phy80211p 	busyTime 	0.0062385426179608
scalar Floatingscenario.node[142].nic.mac1609_4 	ReceivedUnicastPackets 	0
scalar Floatingscenario.node[142].nic.mac1609_4 	ReceivedBroadcasts 	1028
scalar Floatingscenario.node[142].nic.mac1609_4 	SentPackets 	43
scalar Floatingscenario.node[142].nic.mac1609_4 	SNIRLostPackets 	3261
scalar Floatingscenario.node[142].nic.mac1609_4 	RXTXLostPackets 	149
scalar Floatingscenario.node[142].nic.mac1609_4 	TotalLostPackets 	3410
scalar Floatingscenario.node[142].nic.mac1609_4 	DroppedPacketsInMac 	0
scalar Floatingscenario.node[142].nic.mac1609_4 	TooLittleTime 	0
scalar Floatingscenario.node[142].nic.mac1609_4 	TimesIntoBackoff 	85
scalar Floatingscenario.node[142].nic.mac1609_4 	SlotsBackoff 	287
scalar Floatingscenario.node[142].nic.mac1609_4 	NumInternalContention 	0
scalar Floatingscenario.node[142].nic.mac1609_4 	totalBusyTime 	0.77593062296
scalar Floatingscenario.node[142].mobility 	startTime 	143.1
scalar Floatingscenario.node[142].mobility 	totalTime 	262.7
scalar Floatingscenario.node[142].mobility 	stopTime 	405.9
scalar Floatingscenario.node[142].mobility 	minSpeed 	1.1257569260857e-13
scalar Floatingscenario.node[142].mobility 	maxSpeed 	27.779989696173
scalar Floatingscenario.node[142].mobility 	totalDistance 	2452.3591569036
scalar Floatingscenario.node[142].mobility 	totalCO2Emission 	674.62051648886
scalar Floatingscenario.node[32].nic.phy80211p 	busyTime 	0.0021656888297872
scalar Floatingscenario.node[32].nic.mac1609_4 	ReceivedUnicastPackets 	0
scalar Floatingscenario.node[32].nic.mac1609_4 	ReceivedBroadcasts 	791
scalar Floatingscenario.node[32].nic.mac1609_4 	SentPackets 	67
scalar Floatingscenario.node[32].nic.mac1609_4 	SNIRLostPackets 	1348
scalar Floatingscenario.node[32].nic.mac1609_4 	RXTXLostPackets 	105
scalar Floatingscenario.node[32].nic.mac1609_4 	TotalLostPackets 	1453
scalar Floatingscenario.node[32].nic.mac1609_4 	DroppedPacketsInMac 	0
scalar Floatingscenario.node[32].nic.mac1609_4 	TooLittleTime 	0
scalar Floatingscenario.node[32].nic.mac1609_4 	TimesIntoBackoff 	122
scalar Floatingscenario.node[32].nic.mac1609_4 	SlotsBackoff 	391
scalar Floatingscenario.node[32].nic.mac1609_4 	NumInternalContention 	0
scalar Floatingscenario.node[32].nic.mac1609_4 	totalBusyTime 	0.471239679335
scalar Floatingscenario.node[32].mobility 	startTime 	32.1
scalar Floatingscenario.node[32].mobility 	totalTime 	375.9
scalar Floatingscenario.node[32].mobility 	stopTime 	408.1
scalar Floatingscenario.node[32].mobility 	minSpeed 	5.8540217360554e-14
scalar Floatingscenario.node[32].mobility 	maxSpeed 	27.779988189645
scalar Floatingscenario.node[32].mobility 	totalDistance 	3323.1279039452
scalar Floatingscenario.node[32].mobility 	totalCO2Emission 	1202.5680627771
scalar Floatingscenario.node[50].nic.phy80211p 	busyTime 	0.0035818889508929
scalar Floatingscenario.node[50].nic.mac1609_4 	ReceivedUnicastPackets 	0
scalar Floatingscenario.node[50].nic.mac1609_4 	ReceivedBroadcasts 	1118
scalar Floatingscenario.node[50].nic.mac1609_4 	SentPackets 	45
scalar Floatingscenario.node[50].nic.mac1609_4 	SNIRLostPackets 	2247
scalar Floatingscenario.node[50].nic.mac1609_4 	RXTXLostPackets 	85
scalar Floatingscenario.node[50].nic.mac1609_4 	TotalLostPackets 	2332
scalar Floatingscenario.node[50].nic.mac1609_4 	DroppedPacketsInMac 	0
scalar Floatingscenario.node[50].nic.mac1609_4 	TooLittleTime 	0
scalar Floatingscenario.node[50].nic.mac1609_4 	TimesIntoBackoff 	77
scalar Floatingscenario.node[50].nic.mac1609_4 	SlotsBackoff 	248
scalar Floatingscenario.node[50].nic.mac1609_4 	NumInternalContention 	0
scalar Floatingscenario.node[50].nic.mac1609_4 	totalBusyTime 	0.705721380111
scalar Floatingscenario.node[50].mobility 	startTime 	50.1
scalar Floatingscenario.node[50].mobility 	totalTime 	358.3
scalar Floatingscenario.node[50].mobility 	stopTime 	408.5
scalar Floatingscenario.node[50].mobility 	minSpeed 	3.1555609302516e-14
scalar Floatingscenario.node[50].mobility 	maxSpeed 	27.779777955888
scalar Floatingscenario.node[50].mobility 	totalDistance 	2529.5353962655
scalar Floatingscenario.node[50].mobility 	totalCO2Emission 	1005.4868003956
scalar Floatingscenario.node[219].nic.phy80211p 	busyTime 	0.0025186656118144
scalar Floatingscenario.node[219].nic.mac1609_4 	ReceivedUnicastPackets 	0
scalar Floatingscenario.node[219].nic.mac1609_4 	ReceivedBroadcasts 	561
scalar Floatingscenario.node[219].nic.mac1609_4 	SentPackets 	11
scalar Floatingscenario.node[219].nic.mac1609_4 	SNIRLostPackets 	690
scalar Floatingscenario.node[219].nic.mac1609_4 	RXTXLostPackets 	9
scalar Floatingscenario.node[219].nic.mac1609_4 	TotalLostPackets 	699
scalar Floatingscenario.node[219].nic.mac1609_4 	DroppedPacketsInMac 	0
scalar Floatingscenario.node[219].nic.mac1609_4 	TooLittleTime 	0
scalar Floatingscenario.node[219].nic.mac1609_4 	TimesIntoBackoff 	16
scalar Floatingscenario.node[219].nic.mac1609_4 	SlotsBackoff 	67
scalar Floatingscenario.node[219].nic.mac1609_4 	NumInternalContention 	0
scalar Floatingscenario.node[219].nic.mac1609_4 	totalBusyTime 	0.325021762544
scalar Floatingscenario.node[219].mobility 	startTime 	221.1
scalar Floatingscenario.node[219].mobility 	totalTime 	189.5
scalar Floatingscenario.node[219].mobility 	stopTime 	410.7
scalar Floatingscenario.node[219].mobility 	minSpeed 	1.0655215460517e-08
scalar Floatingscenario.node[219].mobility 	maxSpeed 	22.219581372598
scalar Floatingscenario.node[219].mobility 	totalDistance 	2195.6301595739
scalar Floatingscenario.node[219].mobility 	totalCO2Emission 	593.45406119232
scalar Floatingscenario.node[65].nic.phy80211p 	busyTime 	0.0037274808951966
scalar Floatingscenario.node[65].nic.mac1609_4 	ReceivedUnicastPackets 	0
scalar Floatingscenario.node[65].nic.mac1609_4 	ReceivedBroadcasts 	963
scalar Floatingscenario.node[65].nic.mac1609_4 	SentPackets 	31
scalar Floatingscenario.node[65].nic.mac1609_4 	SNIRLostPackets 	2610
scalar Floatingscenario.node[65].nic.mac1609_4 	RXTXLostPackets 	82
scalar Floatingscenario.node[65].nic.mac1609_4 	TotalLostPackets 	2692
scalar Floatingscenario.node[65].nic.mac1609_4 	DroppedPacketsInMac 	0
scalar Floatingscenario.node[65].nic.mac1609_4 	TooLittleTime 	0
scalar Floatingscenario.node[65].nic.mac1609_4 	TimesIntoBackoff 	57
scalar Floatingscenario.node[65].nic.mac1609_4 	SlotsBackoff 	178
scalar Floatingscenario.node[65].nic.mac1609_4 	NumInternalContention 	0
scalar Floatingscenario.node[65].nic.mac1609_4 	totalBusyTime 	0.668684470209
scalar Floatingscenario.node[65].mobility 	startTime 	65.1
scalar Floatingscenario.node[65].mobility 	totalTime 	366.3
scalar Floatingscenario.node[65].mobility 	stopTime 	431.5
scalar Floatingscenario.node[65].mobility 	minSpeed 	5.8635635936883e-14
scalar Floatingscenario.node[65].mobility 	maxSpeed 	22.219911439179
scalar Floatingscenario.node[65].mobility 	totalDistance 	2411.4391069787
scalar Floatingscenario.node[65].mobility 	totalCO2Emission 	890.04943796052
scalar Floatingscenario.node[277].nic.phy80211p 	busyTime 	0.0024529690346084
scalar Floatingscenario.node[277].nic.mac1609_4 	ReceivedUnicastPackets 	0
scalar Floatingscenario.node[277].nic.mac1609_4 	ReceivedBroadcasts 	496
scalar Floatingscenario.node[277].nic.mac1609_4 	SentPackets 	9
scalar Floatingscenario.node[277].nic.mac1609_4 	SNIRLostPackets 	564
scalar Floatingscenario.node[277].nic.mac1609_4 	RXTXLostPackets 	8
scalar Floatingscenario.node[277].nic.mac1609_4 	TotalLostPackets 	572
scalar Floatingscenario.node[277].nic.mac1609_4 	DroppedPacketsInMac 	0
scalar Floatingscenario.node[277].nic.mac1609_4 	TooLittleTime 	0
scalar Floatingscenario.node[277].nic.mac1609_4 	TimesIntoBackoff 	13
scalar Floatingscenario.node[277].nic.mac1609_4 	SlotsBackoff 	34
scalar Floatingscenario.node[277].nic.mac1609_4 	NumInternalContention 	0
scalar Floatingscenario.node[277].nic.mac1609_4 	totalBusyTime 	0.280466968655
scalar Floatingscenario.node[277].mobility 	startTime 	280.1
scalar Floatingscenario.node[277].mobility 	totalTime 	164.6
scalar Floatingscenario.node[277].mobility 	stopTime 	444.8
scalar Floatingscenario.node[277].mobility 	minSpeed 	0.081705730583768
scalar Floatingscenario.node[277].mobility 	maxSpeed 	22.219502741885
scalar Floatingscenario.node[277].mobility 	totalDistance 	2031.9435805677
scalar Floatingscenario.node[277].mobility 	totalCO2Emission 	513.96572784244
scalar Floatingscenario.node[106].nic.phy80211p 	busyTime 	0.0055009051349004
scalar Floatingscenario.node[106].nic.mac1609_4 	ReceivedUnicastPackets 	0
scalar Floatingscenario.node[106].nic.mac1609_4 	ReceivedBroadcasts 	1165
scalar Floatingscenario.node[106].nic.mac1609_4 	SentPackets 	39
scalar Floatingscenario.node[106].nic.mac1609_4 	SNIRLostPackets 	3797
scalar Floatingscenario.node[106].nic.mac1609_4 	RXTXLostPackets 	157
scalar Floatingscenario.node[106].nic.mac1609_4 	TotalLostPackets 	3954
scalar Floatingscenario.node[106].nic.mac1609_4 	DroppedPacketsInMac 	0
scalar Floatingscenario.node[106].nic.mac1609_4 	TooLittleTime 	0
scalar Floatingscenario.node[106].nic.mac1609_4 	TimesIntoBackoff 	69
scalar Floatingscenario.node[106].nic.mac1609_4 	SlotsBackoff 	244
scalar Floatingscenario.node[106].nic.mac1609_4 	NumInternalContention 	0
scalar Floatingscenario.node[106].nic.mac1609_4 	totalBusyTime 	0.88298543642
scalar Floatingscenario.node[106].mobility 	startTime 	106.1
scalar Floatingscenario.node[106].mobility 	totalTime 	344.6
scalar Floatingscenario.node[106].mobility 	stopTime 	450.8
scalar Floatingscenario.node[106].mobility 	minSpeed 	3.1538909569525e-14
scalar Floatingscenario.node[106].mobility 	maxSpeed 	22.219917753595
scalar Floatingscenario.node[106].mobility 	totalDistance 	2226.8475725884
scalar Floatingscenario.node[106].mobility 	totalCO2Emission 	782.11414471404
scalar Floatingscenario.node[82].nic.phy80211p 	busyTime 	0.0036973677142091
scalar Floatingscenario.node[82].nic.mac1609_4 	ReceivedUnicastPackets 	0
scalar Floatingscenario.node[82].nic.mac1609_4 	ReceivedBroadcasts 	964
scalar Floatingscenario.node[82].nic.mac1609_4 	SentPackets 	56
scalar Floatingscenario.node[82].nic.mac1609_4 	SNIRLostPackets 	2638
scalar Floatingscenario.node[82].nic.mac1609_4 	RXTXLostPackets 	143
scalar Floatingscenario.node[82].nic.mac1609_4 	TotalLostPackets 	2781
scalar Floatingscenario.node[82].nic.mac1609_4 	DroppedPacketsInMac 	0
scalar Floatingscenario.node[82].nic.mac1609_4 	TooLittleTime 	0
scalar Floatingscenario.node[82].nic.mac1609_4 	TimesIntoBackoff 	106
scalar Floatingscenario.node[82].nic.mac1609_4 	SlotsBackoff 	385
scalar Floatingscenario.node[82].nic.mac1609_4 	NumInternalContention 	0
scalar Floatingscenario.node[82].nic.mac1609_4 	totalBusyTime 	0.685956702487
scalar Floatingscenario.node[82].mobility 	startTime 	82.1
scalar Floatingscenario.node[82].mobility 	totalTime 	372.2
scalar Floatingscenario.node[82].mobility 	stopTime 	454.4
scalar Floatingscenario.node[82].mobility 	minSpeed 	5.7367718429716e-13
scalar Floatingscenario.node[82].mobility 	maxSpeed 	22.219248296109
scalar Floatingscenario.node[82].mobility 	totalDistance 	2524.4868751673
scalar Floatingscenario.node[82].mobility 	totalCO2Emission 	852.56144884366
scalar Floatingscenario.node[33].nic.phy80211p 	busyTime 	0.0032828952336009
scalar Floatingscenario.node[33].nic.mac1609_4 	ReceivedUnicastPackets 	0
scalar Floatingscenario.node[33].nic.mac1609_4 	ReceivedBroadcasts 	1057
scalar Floatingscenario.node[33].nic.mac1609_4 	SentPackets 	70
scalar Floatingscenario.node[33].nic.mac1609_4 	SNIRLostPackets 	2586
scalar Floatingscenario.node[33].nic.mac1609_4 	RXTXLostPackets 	129
scalar Floatingscenario.node[33].nic.mac1609_4 	TotalLostPackets 	2715
scalar Floatingscenario.node[33].nic.mac1609_4 	DroppedPacketsInMac 	0
scalar Floatingscenario.node[33].nic.mac1609_4 	TooLittleTime 	0
scalar Floatingscenario.node[33].nic.mac1609_4 	TimesIntoBackoff 	123
scalar Floatingscenario.node[33].nic.mac1609_4 	SlotsBackoff 	394
scalar Floatingscenario.node[33].nic.mac1609_4 	NumInternalContention 	0
scalar Floatingscenario.node[33].nic.mac1609_4 	totalBusyTime 	0.718874433238
scalar Floatingscenario.node[33].mobility 	startTime 	33.1
scalar Floatingscenario.node[33].mobility 	totalTime 	423.7
scalar Floatingscenario.node[33].mobility 	stopTime 	456.9
scalar Floatingscenario.node[33].mobility 	minSpeed 	5.8538492613285e-14
scalar Floatingscenario.node[33].mobility 	maxSpeed 	22.219990581057
scalar Floatingscenario.node[33].mobility 	totalDistance 	2553.5467576123
scalar Floatingscenario.node[33].mobility 	totalCO2Emission 	887.42758008704
scalar Floatingscenario.node[35].nic.phy80211p 	busyTime 	0.0050148641304353
scalar Floatingscenario.node[35].nic.mac1609_4 	ReceivedUnicastPackets 	0
scalar Floatingscenario.node[35].nic.mac1609_4 	ReceivedBroadcasts 	1683
scalar Floatingscenario.node[35].nic.mac1609_4 	SentPackets 	95
scalar Floatingscenario.node[35].nic.mac1609_4 	SNIRLostPackets 	4113
scalar Floatingscenario.node[35].nic.mac1609_4 	RXTXLostPackets 	198
scalar Floatingscenario.node[35].nic.mac1609_4 	TotalLostPackets 	4311
scalar Floatingscenario.node[35].nic.mac1609_4 	DroppedPacketsInMac 	0
scalar Floatingscenario.node[35].nic.mac1609_4 	TooLittleTime 	0
scalar Floatingscenario.node[35].nic.mac1609_4 	TimesIntoBackoff 	169
scalar Floatingscenario.node[35].nic.mac1609_4 	SlotsBackoff 	577
scalar Floatingscenario.node[35].nic.mac1609_4 	NumInternalContention 	0
scalar Floatingscenario.node[35].nic.mac1609_4 	totalBusyTime 	1.116605573398
scalar Floatingscenario.node[35].mobility 	startTime 	35.1
scalar Floatingscenario.node[35].mobility 	totalTime 	441.5
scalar Floatingscenario.node[35].mobility 	stopTime 	476.7
scalar Floatingscenario.node[35].mobility 	minSpeed 	3.1537318300981e-14
scalar Floatingscenario.node[35].mobility 	maxSpeed 	27.779733745109
scalar Floatingscenario.node[35].mobility 	totalDistance 	2622.0770833544
scalar Floatingscenario.node[35].mobility 	totalCO2Emission 	1006.4426827822
scalar Floatingscenario.node[24].nic.phy80211p 	busyTime 	0.0042125230769234
scalar Floatingscenario.node[24].nic.mac1609_4 	ReceivedUnicastPackets 	0
scalar Floatingscenario.node[24].nic.mac1609_4 	ReceivedBroadcasts 	1564
scalar Floatingscenario.node[24].nic.mac1609_4 	SentPackets 	89
scalar Floatingscenario.node[24].nic.mac1609_4 	SNIRLostPackets 	3454
scalar Floatingscenario.node[24].nic.mac1609_4 	RXTXLostPackets 	217
scalar Floatingscenario.node[24].nic.mac1609_4 	TotalLostPackets 	3671
scalar Floatingscenario.node[24].nic.mac1609_4 	DroppedPacketsInMac 	0
scalar Floatingscenario.node[24].nic.mac1609_4 	TooLittleTime 	0
scalar Floatingscenario.node[24].nic.mac1609_4 	TimesIntoBackoff 	145
scalar Floatingscenario.node[24].nic.mac1609_4 	SlotsBackoff 	458
scalar Floatingscenario.node[24].nic.mac1609_4 	NumInternalContention 	0
scalar Floatingscenario.node[24].nic.mac1609_4 	totalBusyTime 	1.024842351578
scalar Floatingscenario.node[24].mobility 	startTime 	24.1
scalar Floatingscenario.node[24].mobility 	totalTime 	454.9
scalar Floatingscenario.node[24].mobility 	stopTime 	479.1
scalar Floatingscenario.node[24].mobility 	minSpeed 	7.9112148648718e-15
scalar Floatingscenario.node[24].mobility 	maxSpeed 	27.775964624563
scalar Floatingscenario.node[24].mobility 	totalDistance 	3070.0484091099
scalar Floatingscenario.node[24].mobility 	totalCO2Emission 	1165.5717860262
scalar Floatingscenario.node[81].nic.phy80211p 	busyTime 	0.0048980059820543
scalar Floatingscenario.node[81].nic.mac1609_4 	ReceivedUnicastPackets 	0
scalar Floatingscenario.node[81].nic.mac1609_4 	ReceivedBroadcasts 	1596
scalar Floatingscenario.node[81].nic.mac1609_4 	SentPackets 	3
scalar Floatingscenario.node[81].nic.mac1609_4 	SNIRLostPackets 	3548
scalar Floatingscenario.node[81].nic.mac1609_4 	RXTXLostPackets 	5
scalar Floatingscenario.node[81].nic.mac1609_4 	TotalLostPackets 	3553
scalar Floatingscenario.node[81].nic.mac1609_4 	DroppedPacketsInMac 	0
scalar Floatingscenario.node[81].nic.mac1609_4 	TooLittleTime 	0
scalar Floatingscenario.node[81].nic.mac1609_4 	TimesIntoBackoff 	5
scalar Floatingscenario.node[81].nic.mac1609_4 	SlotsBackoff 	19
scalar Floatingscenario.node[81].nic.mac1609_4 	NumInternalContention 	0
scalar Floatingscenario.node[81].nic.mac1609_4 	totalBusyTime 	1.04730192138
scalar Floatingscenario.node[81].mobility 	startTime 	81.1
scalar Floatingscenario.node[81].mobility 	totalTime 	401.1
scalar Floatingscenario.node[81].mobility 	stopTime 	482.3
scalar Floatingscenario.node[81].mobility 	minSpeed 	1.4666105170688e-14
scalar Floatingscenario.node[81].mobility 	maxSpeed 	27.778947851048
scalar Floatingscenario.node[81].mobility 	totalDistance 	2577.2839839947
scalar Floatingscenario.node[81].mobility 	totalCO2Emission 	950.17391254179
scalar Floatingscenario.node[22].nic.phy80211p 	busyTime 	0.0043094351871893
scalar Floatingscenario.node[22].nic.mac1609_4 	ReceivedUnicastPackets 	0
scalar Floatingscenario.node[22].nic.mac1609_4 	ReceivedBroadcasts 	1649
scalar Floatingscenario.node[22].nic.mac1609_4 	SentPackets 	37
scalar Floatingscenario.node[22].nic.mac1609_4 	SNIRLostPackets 	3565
scalar Floatingscenario.node[22].nic.mac1609_4 	RXTXLostPackets 	152
scalar Floatingscenario.node[22].nic.mac1609_4 	TotalLostPackets 	3717
scalar Floatingscenario.node[22].nic.mac1609_4 	DroppedPacketsInMac 	0
scalar Floatingscenario.node[22].nic.mac1609_4 	TooLittleTime 	0
scalar Floatingscenario.node[22].nic.mac1609_4 	TimesIntoBackoff 	60
scalar Floatingscenario.node[22].nic.mac1609_4 	SlotsBackoff 	209
scalar Floatingscenario.node[22].nic.mac1609_4 	NumInternalContention 	0
scalar Floatingscenario.node[22].nic.mac1609_4 	totalBusyTime 	1.092646680237
scalar Floatingscenario.node[22].mobility 	startTime 	22.1
scalar Floatingscenario.node[22].mobility 	totalTime 	462
scalar Floatingscenario.node[22].mobility 	stopTime 	484.2
scalar Floatingscenario.node[22].mobility 	minSpeed 	5.8537857790604e-14
scalar Floatingscenario.node[22].mobility 	maxSpeed 	27.779513307016
scalar Floatingscenario.node[22].mobility 	totalDistance 	2733.2151092023
scalar Floatingscenario.node[22].mobility 	totalCO2Emission 	1041.8732094385
scalar Floatingscenario.node[373].nic.phy80211p 	busyTime 	0.0022278155774395
scalar Floatingscenario.node[373].nic.mac1609_4 	ReceivedUnicastPackets 	0
scalar Floatingscenario.node[373].nic.mac1609_4 	ReceivedBroadcasts 	343
scalar Floatingscenario.node[373].nic.mac1609_4 	SentPackets 	0
scalar Floatingscenario.node[373].nic.mac1609_4 	SNIRLostPackets 	312
scalar Floatingscenario.node[373].nic.mac1609_4 	RXTXLostPackets 	0
scalar Floatingscenario.node[373].nic.mac1609_4 	TotalLostPackets 	312
scalar Floatingscenario.node[373].nic.mac1609_4 	DroppedPacketsInMac 	0
scalar Floatingscenario.node[373].nic.mac1609_4 	TooLittleTime 	0
scalar Floatingscenario.node[373].nic.mac1609_4 	TimesIntoBackoff 	0
scalar Floatingscenario.node[373].nic.mac1609_4 	SlotsBackoff 	0
scalar Floatingscenario.node[373].nic.mac1609_4 	NumInternalContention 	0
scalar Floatingscenario.node[373].nic.mac1609_4 	totalBusyTime 	0.184397331987
scalar Floatingscenario.node[373].mobility 	startTime 	377.1
scalar Floatingscenario.node[373].mobility 	totalTime 	111.6
scalar Floatingscenario.node[373].mobility 	stopTime 	488.8
scalar Floatingscenario.node[373].mobility 	minSpeed 	3.3709718758397
scalar Floatingscenario.node[373].mobility 	maxSpeed 	27.779994368732
scalar Floatingscenario.node[373].mobility 	totalDistance 	1905.3464273223
scalar Floatingscenario.node[373].mobility 	totalCO2Emission 	471.80671516473
scalar Floatingscenario.node[118].nic.phy80211p 	busyTime 	0.0049839973474805
scalar Floatingscenario.node[118].nic.mac1609_4 	ReceivedUnicastPackets 	0
scalar Floatingscenario.node[118].nic.mac1609_4 	ReceivedBroadcasts 	1277
scalar Floatingscenario.node[118].nic.mac1609_4 	SentPackets 	58
scalar Floatingscenario.node[118].nic.mac1609_4 	SNIRLostPackets 	3642
scalar Floatingscenario.node[118].nic.mac1609_4 	RXTXLostPackets 	184
scalar Floatingscenario.node[118].nic.mac1609_4 	TotalLostPackets 	3826
scalar Floatingscenario.node[118].nic.mac1609_4 	DroppedPacketsInMac 	0
scalar Floatingscenario.node[118].nic.mac1609_4 	TooLittleTime 	0
scalar Floatingscenario.node[118].nic.mac1609_4 	TimesIntoBackoff 	106
scalar Floatingscenario.node[118].nic.mac1609_4 	SlotsBackoff 	407
scalar Floatingscenario.node[118].nic.mac1609_4 	NumInternalContention 	0
scalar Floatingscenario.node[118].nic.mac1609_4 	totalBusyTime 	0.882535162527
scalar Floatingscenario.node[118].mobility 	startTime 	118.1
scalar Floatingscenario.node[118].mobility 	totalTime 	376.9
scalar Floatingscenario.node[118].mobility 	stopTime 	495.1
scalar Floatingscenario.node[118].mobility 	minSpeed 	5.8540372475446e-14
scalar Floatingscenario.node[118].mobility 	maxSpeed 	22.219944597967
scalar Floatingscenario.node[118].mobility 	totalDistance 	2722.1160765749
scalar Floatingscenario.node[118].mobility 	totalCO2Emission 	926.32042811117
scalar Floatingscenario.node[127].nic.phy80211p 	busyTime 	0.0051843653166626
scalar Floatingscenario.node[127].nic.mac1609_4 	ReceivedUnicastPackets 	0
scalar Floatingscenario.node[127].nic.mac1609_4 	ReceivedBroadcasts 	1246
scalar Floatingscenario.node[127].nic.mac1609_4 	SentPackets 	41
scalar Floatingscenario.node[127].nic.mac1609_4 	SNIRLostPackets 	3746
scalar Floatingscenario.node[127].nic.mac1609_4 	RXTXLostPackets 	136
scalar Floatingscenario.node[127].nic.mac1609_4 	TotalLostPackets 	3882
scalar Floatingscenario.node[127].nic.mac1609_4 	DroppedPacketsInMac 	0
scalar Floatingscenario.node[127].nic.mac1609_4 	TooLittleTime 	0
scalar Floatingscenario.node[127].nic.mac1609_4 	TimesIntoBackoff 	81
scalar Floatingscenario.node[127].nic.mac1609_4 	SlotsBackoff 	267
scalar Floatingscenario.node[127].nic.mac1609_4 	NumInternalContention 	0
scalar Floatingscenario.node[127].nic.mac1609_4 	totalBusyTime 	0.881972735504
scalar Floatingscenario.node[127].mobility 	startTime 	128.1
scalar Floatingscenario.node[127].mobility 	totalTime 	367.8
scalar Floatingscenario.node[127].mobility 	stopTime 	496
scalar Floatingscenario.node[127].mobility 	minSpeed 	5.8540565954623e-14
scalar Floatingscenario.node[127].mobility 	maxSpeed 	22.219361196202
scalar Floatingscenario.node[127].mobility 	totalDistance 	2718.4106143039
scalar Floatingscenario.node[127].mobility 	totalCO2Emission 	937.92034251299
scalar Floatingscenario.node[133].nic.phy80211p 	busyTime 	0.00064433068710648
scalar Floatingscenario.node[133].nic.mac1609_4 	ReceivedUnicastPackets 	0
scalar Floatingscenario.node[133].nic.mac1609_4 	ReceivedBroadcasts 	352
scalar Floatingscenario.node[133].nic.mac1609_4 	SentPackets 	10
scalar Floatingscenario.node[133].nic.mac1609_4 	SNIRLostPackets 	270
scalar Floatingscenario.node[133].nic.mac1609_4 	RXTXLostPackets 	0
scalar Floatingscenario.node[133].nic.mac1609_4 	TotalLostPackets 	270
[...]
scalar Floatingscenario.manager.anchorZone[278] 	timeAverage 	64.320987654321
scalar Floatingscenario.manager.anchorZone[278] 	avgContacts 	0.12345679012346
scalar Floatingscenario.manager.anchorZone[278] 	contactTime 	0
scalar Floatingscenario.manager.anchorZone[278] 	contacts 	10
scalar Floatingscenario.manager.anchorZone[278] 	replicas 	0
scalar Floatingscenario.manager.anchorZone[278] 	xpos 	4200
scalar Floatingscenario.manager.anchorZone[278] 	ypos 	1000
scalar Floatingscenario.manager.anchorZone[278] 	numNodes 	16
scalar Floatingscenario.manager.anchorZone[279] 	criticality 	20
scalar Floatingscenario.manager.anchorZone[279] 	criticality2 	22.830811278724
scalar Floatingscenario.manager.anchorZone[279] 	criticality3 	6.1059146443099
scalar Floatingscenario.manager.anchorZone[279] 	removed 	1
scalar Floatingscenario.manager.anchorZone[279] 	infected 	1
scalar Floatingscenario.manager.anchorZone[279] 	transit 	86
scalar Floatingscenario.manager.anchorZone[279] 	contactsPerSecond 	0.0032393319067429
scalar Floatingscenario.manager.anchorZone[279] 	timeAverage 	81.953488372093
scalar Floatingscenario.manager.anchorZone[279] 	avgContacts 	0.23255813953488
scalar Floatingscenario.manager.anchorZone[279] 	contactTime 	0
scalar Floatingscenario.manager.anchorZone[279] 	contacts 	20
scalar Floatingscenario.manager.anchorZone[279] 	replicas 	0
scalar Floatingscenario.manager.anchorZone[279] 	xpos 	4200
scalar Floatingscenario.manager.anchorZone[279] 	ypos 	1200
scalar Floatingscenario.manager.anchorZone[279] 	numNodes 	21
scalar Floatingscenario.manager.anchorZone[280] 	criticality 	18
scalar Floatingscenario.manager.anchorZone[280] 	criticality2 	14.554190094432
scalar Floatingscenario.manager.anchorZone[280] 	criticality3 	4.9962145100288
scalar Floatingscenario.manager.anchorZone[280] 	removed 	13
scalar Floatingscenario.manager.anchorZone[280] 	infected 	14
scalar Floatingscenario.manager.anchorZone[280] 	transit 	67
scalar Floatingscenario.manager.anchorZone[280] 	contactsPerSecond 	0.0021352978424929
scalar Floatingscenario.manager.anchorZone[280] 	timeAverage 	101.73134328358
scalar Floatingscenario.manager.anchorZone[280] 	avgContacts 	0.26865671641791
scalar Floatingscenario.manager.anchorZone[280] 	contactTime 	0
scalar Floatingscenario.manager.anchorZone[280] 	contacts 	18
scalar Floatingscenario.manager.anchorZone[280] 	replicas 	1
scalar Floatingscenario.manager.anchorZone[280] 	xpos 	4200
scalar Floatingscenario.manager.anchorZone[280] 	ypos 	1400
scalar Floatingscenario.manager.anchorZone[280] 	numNodes 	19
scalar Floatingscenario.manager.anchorZone[281] 	criticality 	15
scalar Floatingscenario.manager.anchorZone[281] 	criticality2 	9.6541171137617
scalar Floatingscenario.manager.anchorZone[281] 	criticality3 	3.2675473308117
scalar Floatingscenario.manager.anchorZone[281] 	removed 	12
scalar Floatingscenario.manager.anchorZone[281] 	infected 	13
scalar Floatingscenario.manager.anchorZone[281] 	transit 	65
scalar Floatingscenario.manager.anchorZone[281] 	contactsPerSecond 	0.0015821234208066
scalar Floatingscenario.manager.anchorZone[281] 	timeAverage 	93.876923076923
scalar Floatingscenario.manager.anchorZone[281] 	avgContacts 	0.23076923076923
scalar Floatingscenario.manager.anchorZone[281] 	contactTime 	0
scalar Floatingscenario.manager.anchorZone[281] 	contacts 	15
scalar Floatingscenario.manager.anchorZone[281] 	replicas 	1
scalar Floatingscenario.manager.anchorZone[281] 	xpos 	4200
scalar Floatingscenario.manager.anchorZone[281] 	ypos 	1600
scalar Floatingscenario.manager.anchorZone[281] 	numNodes 	17
scalar Floatingscenario.manager.anchorZone[282] 	criticality 	6
scalar Floatingscenario.manager.anchorZone[282] 	criticality2 	5.3338382008798
scalar Floatingscenario.manager.anchorZone[282] 	criticality3 	1.471403641622
scalar Floatingscenario.manager.anchorZone[282] 	removed 	1
scalar Floatingscenario.manager.anchorZone[282] 	infected 	1
scalar Floatingscenario.manager.anchorZone[282] 	transit 	58
scalar Floatingscenario.manager.anchorZone[282] 	contactsPerSecond 	0.0012952496845264
scalar Floatingscenario.manager.anchorZone[282] 	timeAverage 	71
scalar Floatingscenario.manager.anchorZone[282] 	avgContacts 	0.10344827586207
scalar Floatingscenario.manager.anchorZone[282] 	contactTime 	0
scalar Floatingscenario.manager.anchorZone[282] 	contacts 	6
scalar Floatingscenario.manager.anchorZone[282] 	replicas 	0
scalar Floatingscenario.manager.anchorZone[282] 	xpos 	4200
scalar Floatingscenario.manager.anchorZone[282] 	ypos 	1800
scalar Floatingscenario.manager.anchorZone[282] 	numNodes 	16
scalar Floatingscenario.manager.anchorZone[283] 	criticality 	0
scalar Floatingscenario.manager.anchorZone[283] 	criticality2 	0
scalar Floatingscenario.manager.anchorZone[283] 	criticality3 	0
scalar Floatingscenario.manager.anchorZone[283] 	removed 	1
scalar Floatingscenario.manager.anchorZone[283] 	infected 	1
scalar Floatingscenario.manager.anchorZone[283] 	transit 	16
scalar Floatingscenario.manager.anchorZone[283] 	contactsPerSecond 	0
scalar Floatingscenario.manager.anchorZone[283] 	timeAverage 	11.0625
scalar Floatingscenario.manager.anchorZone[283] 	avgContacts 	0
scalar Floatingscenario.manager.anchorZone[283] 	contactTime 	0
scalar Floatingscenario.manager.anchorZone[283] 	contacts 	0
scalar Floatingscenario.manager.anchorZone[283] 	replicas 	0
scalar Floatingscenario.manager.anchorZone[283] 	xpos 	4200
scalar Floatingscenario.manager.anchorZone[283] 	ypos 	2000
scalar Floatingscenario.manager.anchorZone[283] 	numNodes 	1
scalar Floatingscenario.manager.anchorZone[284] 	criticality 	0
scalar Floatingscenario.manager.anchorZone[284] 	criticality2 	0
scalar Floatingscenario.manager.anchorZone[284] 	criticality3 	0
scalar Floatingscenario.manager.anchorZone[284] 	removed 	1
scalar Floatingscenario.manager.anchorZone[284] 	infected 	1
scalar Floatingscenario.manager.anchorZone[284] 	transit 	1
scalar Floatingscenario.manager.anchorZone[284] 	contactsPerSecond 	0
scalar Floatingscenario.manager.anchorZone[284] 	timeAverage 	5
scalar Floatingscenario.manager.anchorZone[284] 	avgContacts 	0
scalar Floatingscenario.manager.anchorZone[284] 	contactTime 	0
scalar Floatingscenario.manager.anchorZone[284] 	contacts 	0
scalar Floatingscenario.manager.anchorZone[284] 	replicas 	0
scalar Floatingscenario.manager.anchorZone[284] 	xpos 	4200
scalar Floatingscenario.manager.anchorZone[284] 	ypos 	2200
scalar Floatingscenario.manager.anchorZone[284] 	numNodes 	0
scalar Floatingscenario.manager.anchorZone[285] 	criticality 	0
scalar Floatingscenario.manager.anchorZone[285] 	criticality2 	0
scalar Floatingscenario.manager.anchorZone[285] 	criticality3 	0
scalar Floatingscenario.manager.anchorZone[285] 	removed 	0
scalar Floatingscenario.manager.anchorZone[285] 	infected 	0
scalar Floatingscenario.manager.anchorZone[285] 	transit 	0
scalar Floatingscenario.manager.anchorZone[285] 	contactsPerSecond 	0
scalar Floatingscenario.manager.anchorZone[285] 	timeAverage 	0
scalar Floatingscenario.manager.anchorZone[285] 	avgContacts 	0
scalar Floatingscenario.manager.anchorZone[285] 	contactTime 	0
scalar Floatingscenario.manager.anchorZone[285] 	contacts 	0
scalar Floatingscenario.manager.anchorZone[285] 	replicas 	0
scalar Floatingscenario.manager.anchorZone[285] 	xpos 	4200
scalar Floatingscenario.manager.anchorZone[285] 	ypos 	2400
scalar Floatingscenario.manager.anchorZone[285] 	numNodes 	0
scalar Floatingscenario.manager.anchorZone[286] 	criticality 	0
scalar Floatingscenario.manager.anchorZone[286] 	criticality2 	0
scalar Floatingscenario.manager.anchorZone[286] 	criticality3 	0
scalar Floatingscenario.manager.anchorZone[286] 	removed 	0
scalar Floatingscenario.manager.anchorZone[286] 	infected 	0
scalar Floatingscenario.manager.anchorZone[286] 	transit 	0
scalar Floatingscenario.manager.anchorZone[286] 	contactsPerSecond 	0
scalar Floatingscenario.manager.anchorZone[286] 	timeAverage 	0
scalar Floatingscenario.manager.anchorZone[286] 	avgContacts 	0
scalar Floatingscenario.manager.anchorZone[286] 	contactTime 	0
scalar Floatingscenario.manager.anchorZone[286] 	contacts 	0
scalar Floatingscenario.manager.anchorZone[286] 	replicas 	0
scalar Floatingscenario.manager.anchorZone[286] 	xpos 	4400
scalar Floatingscenario.manager.anchorZone[286] 	ypos 	0
scalar Floatingscenario.manager.anchorZone[286] 	numNodes 	0
scalar Floatingscenario.manager.anchorZone[287] 	criticality 	0
scalar Floatingscenario.manager.anchorZone[287] 	criticality2 	0
scalar Floatingscenario.manager.anchorZone[287] 	criticality3 	0
scalar Floatingscenario.manager.anchorZone[287] 	removed 	0
scalar Floatingscenario.manager.anchorZone[287] 	infected 	0
scalar Floatingscenario.manager.anchorZone[287] 	transit 	0
scalar Floatingscenario.manager.anchorZone[287] 	contactsPerSecond 	0
scalar Floatingscenario.manager.anchorZone[287] 	timeAverage 	0
scalar Floatingscenario.manager.anchorZone[287] 	avgContacts 	0
scalar Floatingscenario.manager.anchorZone[287] 	contactTime 	0
scalar Floatingscenario.manager.anchorZone[287] 	contacts 	0
scalar Floatingscenario.manager.anchorZone[287] 	replicas 	0
scalar Floatingscenario.manager.anchorZone[287] 	xpos 	4400
scalar Floatingscenario.manager.anchorZone[287] 	ypos 	200
scalar Floatingscenario.manager.anchorZone[287] 	numNodes 	0
scalar Floatingscenario.manager.anchorZone[288] 	criticality 	0
scalar Floatingscenario.manager.anchorZone[288] 	criticality2 	0
scalar Floatingscenario.manager.anchorZone[288] 	criticality3 	0
scalar Floatingscenario.manager.anchorZone[288] 	removed 	0
scalar Floatingscenario.manager.anchorZone[288] 	infected 	0
scalar Floatingscenario.manager.anchorZone[288] 	transit 	0
scalar Floatingscenario.manager.anchorZone[288] 	contactsPerSecond 	0
scalar Floatingscenario.manager.anchorZone[288] 	timeAverage 	0
scalar Floatingscenario.manager.anchorZone[288] 	avgContacts 	0
scalar Floatingscenario.manager.anchorZone[288] 	contactTime 	0
scalar Floatingscenario.manager.anchorZone[288] 	contacts 	0
scalar Floatingscenario.manager.anchorZone[288] 	replicas 	0
scalar Floatingscenario.manager.anchorZone[288] 	xpos 	4400
scalar Floatingscenario.manager.anchorZone[288] 	ypos 	400
scalar Floatingscenario.manager.anchorZone[288] 	numNodes 	0
scalar Floatingscenario.manager.anchorZone[289] 	criticality 	0
scalar Floatingscenario.manager.anchorZone[289] 	criticality2 	0
scalar Floatingscenario.manager.anchorZone[289] 	criticality3 	0
scalar Floatingscenario.manager.anchorZone[289] 	removed 	1
scalar Floatingscenario.manager.anchorZone[289] 	infected 	1
scalar Floatingscenario.manager.anchorZone[289] 	transit 	5
scalar Floatingscenario.manager.anchorZone[289] 	contactsPerSecond 	0
scalar Floatingscenario.manager.anchorZone[289] 	timeAverage 	9.6
scalar Floatingscenario.manager.anchorZone[289] 	avgContacts 	0
scalar Floatingscenario.manager.anchorZone[289] 	contactTime 	0
scalar Floatingscenario.manager.anchorZone[289] 	contacts 	0
scalar Floatingscenario.manager.anchorZone[289] 	replicas 	0
scalar Floatingscenario.manager.anchorZone[289] 	xpos 	4400
scalar Floatingscenario.manager.anchorZone[289] 	ypos 	600
scalar Floatingscenario.manager.anchorZone[289] 	numNodes 	0
scalar Floatingscenario.manager.anchorZone[290] 	criticality 	0
scalar Floatingscenario.manager.anchorZone[290] 	criticality2 	0
scalar Floatingscenario.manager.anchorZone[290] 	criticality3 	0
scalar Floatingscenario.manager.anchorZone[290] 	removed 	1
scalar Floatingscenario.manager.anchorZone[290] 	infected 	1
scalar Floatingscenario.manager.anchorZone[290] 	transit 	20
scalar Floatingscenario.manager.anchorZone[290] 	contactsPerSecond 	0
scalar Floatingscenario.manager.anchorZone[290] 	timeAverage 	18.65
scalar Floatingscenario.manager.anchorZone[290] 	avgContacts 	0
scalar Floatingscenario.manager.anchorZone[290] 	contactTime 	0
scalar Floatingscenario.manager.anchorZone[290] 	contacts 	0
scalar Floatingscenario.manager.anchorZone[290] 	replicas 	0
scalar Floatingscenario.manager.anchorZone[290] 	xpos 	4400
scalar Floatingscenario.manager.anchorZone[290] 	ypos 	800
scalar Floatingscenario.manager.anchorZone[290] 	numNodes 	0
scalar Floatingscenario.manager.anchorZone[291] 	criticality 	1
scalar Floatingscenario.manager.anchorZone[291] 	criticality2 	4.2086734693878
scalar Floatingscenario.manager.anchorZone[291] 	criticality3 	0.85891295293628
scalar Floatingscenario.manager.anchorZone[291] 	removed 	2
scalar Floatingscenario.manager.anchorZone[291] 	infected 	2
scalar Floatingscenario.manager.anchorZone[291] 	transit 	49
scalar Floatingscenario.manager.anchorZone[291] 	contactsPerSecond 	0.0021908763505402
scalar Floatingscenario.manager.anchorZone[291] 	timeAverage 	39.204081632653
scalar Floatingscenario.manager.anchorZone[291] 	avgContacts 	0.020408163265306
scalar Floatingscenario.manager.anchorZone[291] 	contactTime 	0
scalar Floatingscenario.manager.anchorZone[291] 	contacts 	1
scalar Floatingscenario.manager.anchorZone[291] 	replicas 	0
scalar Floatingscenario.manager.anchorZone[291] 	xpos 	4400
scalar Floatingscenario.manager.anchorZone[291] 	ypos 	1000
scalar Floatingscenario.manager.anchorZone[291] 	numNodes 	8
scalar Floatingscenario.manager.anchorZone[292] 	criticality 	4
scalar Floatingscenario.manager.anchorZone[292] 	criticality2 	16.465818788276
scalar Floatingscenario.manager.anchorZone[292] 	criticality3 	3.6224801334207
scalar Floatingscenario.manager.anchorZone[292] 	removed 	3
scalar Floatingscenario.manager.anchorZone[292] 	infected 	3
scalar Floatingscenario.manager.anchorZone[292] 	transit 	50
scalar Floatingscenario.manager.anchorZone[292] 	contactsPerSecond 	0.0048343566612671
scalar Floatingscenario.manager.anchorZone[292] 	timeAverage 	68.12
scalar Floatingscenario.manager.anchorZone[292] 	avgContacts 	0.08
scalar Floatingscenario.manager.anchorZone[292] 	contactTime 	0
scalar Floatingscenario.manager.anchorZone[292] 	contacts 	4
scalar Floatingscenario.manager.anchorZone[292] 	replicas 	0
scalar Floatingscenario.manager.anchorZone[292] 	xpos 	4400
scalar Floatingscenario.manager.anchorZone[292] 	ypos 	1200
scalar Floatingscenario.manager.anchorZone[292] 	numNodes 	11
scalar Floatingscenario.manager.anchorZone[293] 	criticality 	7
scalar Floatingscenario.manager.anchorZone[293] 	criticality2 	6.6105366962678
scalar Floatingscenario.manager.anchorZone[293] 	criticality3 	1.8709066121513
scalar Floatingscenario.manager.anchorZone[293] 	removed 	2
scalar Floatingscenario.manager.anchorZone[293] 	infected 	2
scalar Floatingscenario.manager.anchorZone[293] 	transit 	53
scalar Floatingscenario.manager.anchorZone[293] 	contactsPerSecond 	0.0015302168278398
scalar Floatingscenario.manager.anchorZone[293] 	timeAverage 	81.509433962264
scalar Floatingscenario.manager.anchorZone[293] 	avgContacts 	0.13207547169811
scalar Floatingscenario.manager.anchorZone[293] 	contactTime 	0
scalar Floatingscenario.manager.anchorZone[293] 	contacts 	7
scalar Floatingscenario.manager.anchorZone[293] 	replicas 	0
scalar Floatingscenario.manager.anchorZone[293] 	xpos 	4400
scalar Floatingscenario.manager.anchorZone[293] 	ypos 	1400
scalar Floatingscenario.manager.anchorZone[293] 	numNodes 	15
scalar Floatingscenario.manager.anchorZone[294] 	criticality 	2
scalar Floatingscenario.manager.anchorZone[294] 	criticality2 	2.6020282078055
scalar Floatingscenario.manager.anchorZone[294] 	criticality3 	0.57244620571721
scalar Floatingscenario.manager.anchorZone[294] 	removed 	1
scalar Floatingscenario.manager.anchorZone[294] 	infected 	1
scalar Floatingscenario.manager.anchorZone[294] 	transit 	50
scalar Floatingscenario.manager.anchorZone[294] 	contactsPerSecond 	0.00083318226314618
scalar Floatingscenario.manager.anchorZone[294] 	timeAverage 	62.46
scalar Floatingscenario.manager.anchorZone[294] 	avgContacts 	0.04
scalar Floatingscenario.manager.anchorZone[294] 	contactTime 	0
scalar Floatingscenario.manager.anchorZone[294] 	contacts 	2
scalar Floatingscenario.manager.anchorZone[294] 	replicas 	0
scalar Floatingscenario.manager.anchorZone[294] 	xpos 	4400
scalar Floatingscenario.manager.anchorZone[294] 	ypos 	1600
scalar Floatingscenario.manager.anchorZone[294] 	numNodes 	11
scalar Floatingscenario.manager.anchorZone[295] 	criticality 	0
scalar Floatingscenario.manager.anchorZone[295] 	criticality2 	0
scalar Floatingscenario.manager.anchorZone[295] 	criticality3 	0
scalar Floatingscenario.manager.anchorZone[295] 	removed 	1
scalar Floatingscenario.manager.anchorZone[295] 	infected 	1
scalar Floatingscenario.manager.anchorZone[295] 	transit 	21
scalar Floatingscenario.manager.anchorZone[295] 	contactsPerSecond 	0
scalar Floatingscenario.manager.anchorZone[295] 	timeAverage 	36.857142857143
scalar Floatingscenario.manager.anchorZone[295] 	avgContacts 	0
scalar Floatingscenario.manager.anchorZone[295] 	contactTime 	0
scalar Floatingscenario.manager.anchorZone[295] 	contacts 	0
scalar Floatingscenario.manager.anchorZone[295] 	replicas 	0
scalar Floatingscenario.manager.anchorZone[295] 	xpos 	4400
scalar Floatingscenario.manager.anchorZone[295] 	ypos 	1800
scalar Floatingscenario.manager.anchorZone[295] 	numNodes 	2
scalar Floatingscenario.manager.anchorZone[296] 	criticality 	0
scalar Floatingscenario.manager.anchorZone[296] 	criticality2 	0
scalar Floatingscenario.manager.anchorZone[296] 	criticality3 	0
scalar Floatingscenario.manager.anchorZone[296] 	removed 	1
scalar Floatingscenario.manager.anchorZone[296] 	infected 	1
scalar Floatingscenario.manager.anchorZone[296] 	transit 	13
scalar Floatingscenario.manager.anchorZone[296] 	contactsPerSecond 	0
scalar Floatingscenario.manager.anchorZone[296] 	timeAverage 	5.1538461538462
scalar Floatingscenario.manager.anchorZone[296] 	avgContacts 	0
scalar Floatingscenario.manager.anchorZone[296] 	contactTime 	0
scalar Floatingscenario.manager.anchorZone[296] 	contacts 	0
scalar Floatingscenario.manager.anchorZone[296] 	replicas 	0
scalar Floatingscenario.manager.anchorZone[296] 	xpos 	4400
scalar Floatingscenario.manager.anchorZone[296] 	ypos 	2000
scalar Floatingscenario.manager.anchorZone[296] 	numNodes 	0
scalar Floatingscenario.manager.anchorZone[297] 	criticality 	0
scalar Floatingscenario.manager.anchorZone[297] 	criticality2 	0
scalar Floatingscenario.manager.anchorZone[297] 	criticality3 	0
scalar Floatingscenario.manager.anchorZone[297] 	removed 	0
scalar Floatingscenario.manager.anchorZone[297] 	infected 	0
scalar Floatingscenario.manager.anchorZone[297] 	transit 	0
scalar Floatingscenario.manager.anchorZone[297] 	contactsPerSecond 	0
scalar Floatingscenario.manager.anchorZone[297] 	timeAverage 	0
scalar Floatingscenario.manager.anchorZone[297] 	avgContacts 	0
scalar Floatingscenario.manager.anchorZone[297] 	contactTime 	0
scalar Floatingscenario.manager.anchorZone[297] 	contacts 	0
scalar Floatingscenario.manager.anchorZone[297] 	replicas 	0
scalar Floatingscenario.manager.anchorZone[297] 	xpos 	4400
scalar Floatingscenario.manager.anchorZone[297] 	ypos 	2200
scalar Floatingscenario.manager.anchorZone[297] 	numNodes 	0
scalar Floatingscenario.manager.anchorZone[298] 	criticality 	0
scalar Floatingscenario.manager.anchorZone[298] 	criticality2 	0
scalar Floatingscenario.manager.anchorZone[298] 	criticality3 	0
scalar Floatingscenario.manager.anchorZone[298] 	removed 	0
scalar Floatingscenario.manager.anchorZone[298] 	infected 	0
scalar Floatingscenario.manager.anchorZone[298] 	transit 	0
scalar Floatingscenario.manager.anchorZone[298] 	contactsPerSecond 	0
scalar Floatingscenario.manager.anchorZone[298] 	timeAverage 	0
scalar Floatingscenario.manager.anchorZone[298] 	avgContacts 	0
scalar Floatingscenario.manager.anchorZone[298] 	contactTime 	0
scalar Floatingscenario.manager.anchorZone[298] 	contacts 	0
scalar Floatingscenario.manager.anchorZone[298] 	replicas 	0
scalar Floatingscenario.manager.anchorZone[298] 	xpos 	4400
scalar Floatingscenario.manager.anchorZone[298] 	ypos 	2400
scalar Floatingscenario.manager.anchorZone[298] 	numNodes 	0
