version 2
run nodebug-0-20140628-17:00:26-2588
attr configname nodebug
attr datetime 20140628-17:00:26
attr experiment nodebug
attr inifile omnetpp.ini
attr iterationvars ""
attr iterationvars2 $repetition=0
attr measurement ""
attr network Floatingscenario
attr processid 2588
attr repetition 0
attr replication #0
attr resultdir results
attr runnumber 0
attr seedset 0

scalar Floatingscenario.node[6].nic.phy80211p 	busyTime 	3.732633279483e-05
scalar Floatingscenario.node[6].nic.mac1609_4 	ReceivedUnicastPackets 	0
scalar Floatingscenario.node[6].nic.mac1609_4 	ReceivedBroadcasts 	13
scalar Floatingscenario.node[6].nic.mac1609_4 	SentPackets 	3
scalar Floatingscenario.node[6].nic.mac1609_4 	SNIRLostPackets 	0
scalar Floatingscenario.node[6].nic.mac1609_4 	RXTXLostPackets 	0
scalar Floatingscenario.node[6].nic.mac1609_4 	TotalLostPackets 	0
scalar Floatingscenario.node[6].nic.mac1609_4 	DroppedPacketsInMac 	0
scalar Floatingscenario.node[6].nic.mac1609_4 	TooLittleTime 	0
scalar Floatingscenario.node[6].nic.mac1609_4 	TimesIntoBackoff 	5
scalar Floatingscenario.node[6].nic.mac1609_4 	SlotsBackoff 	21
scalar Floatingscenario.node[6].nic.mac1609_4 	NumInternalContention 	0
scalar Floatingscenario.node[6].nic.mac1609_4 	totalBusyTime 	0.005779
scalar Floatingscenario.node[6].mobility 	startTime 	6.1
scalar Floatingscenario.node[6].mobility 	totalTime 	123.7
scalar Floatingscenario.node[6].mobility 	stopTime 	129.9
scalar Floatingscenario.node[6].mobility 	minSpeed 	3.322853211367
scalar Floatingscenario.node[6].mobility 	maxSpeed 	27.779792706172
scalar Floatingscenario.node[6].mobility 	totalDistance 	2155.1619640692
scalar Floatingscenario.node[6].mobility 	totalCO2Emission 	496.13052159401
scalar Floatingscenario.node[12].nic.phy80211p 	busyTime 	0.00026166990291262
scalar Floatingscenario.node[12].nic.mac1609_4 	ReceivedUnicastPackets 	0
scalar Floatingscenario.node[12].nic.mac1609_4 	ReceivedBroadcasts 	78
scalar Floatingscenario.node[12].nic.mac1609_4 	SentPackets 	4
scalar Floatingscenario.node[12].nic.mac1609_4 	SNIRLostPackets 	30
scalar Floatingscenario.node[12].nic.mac1609_4 	RXTXLostPackets 	0
scalar Floatingscenario.node[12].nic.mac1609_4 	TotalLostPackets 	30
scalar Floatingscenario.node[12].nic.mac1609_4 	DroppedPacketsInMac 	0
scalar Floatingscenario.node[12].nic.mac1609_4 	TooLittleTime 	0
scalar Floatingscenario.node[12].nic.mac1609_4 	TimesIntoBackoff 	5
scalar Floatingscenario.node[12].nic.mac1609_4 	SlotsBackoff 	15
scalar Floatingscenario.node[12].nic.mac1609_4 	NumInternalContention 	0
scalar Floatingscenario.node[12].nic.mac1609_4 	totalBusyTime 	0.03548011369
scalar Floatingscenario.node[12].mobility 	startTime 	12.1
scalar Floatingscenario.node[12].mobility 	totalTime 	154.4
scalar Floatingscenario.node[12].mobility 	stopTime 	166.6
scalar Floatingscenario.node[12].mobility 	minSpeed 	3.3091279300715
scalar Floatingscenario.node[12].mobility 	maxSpeed 	18.233286509991
scalar Floatingscenario.node[12].mobility 	totalDistance 	1844.0974221777
scalar Floatingscenario.node[12].mobility 	totalCO2Emission 	446.01474361401
scalar Floatingscenario.node[54].nic.phy80211p 	busyTime 	0.00036065084226646
scalar Floatingscenario.node[54].nic.mac1609_4 	ReceivedUnicastPackets 	0
scalar Floatingscenario.node[54].nic.mac1609_4 	ReceivedBroadcasts 	79
scalar Floatingscenario.node[54].nic.mac1609_4 	SentPackets 	0
scalar Floatingscenario.node[54].nic.mac1609_4 	SNIRLostPackets 	46
scalar Floatingscenario.node[54].nic.mac1609_4 	RXTXLostPackets 	0
scalar Floatingscenario.node[54].nic.mac1609_4 	TotalLostPackets 	46
scalar Floatingscenario.node[54].nic.mac1609_4 	DroppedPacketsInMac 	0
scalar Floatingscenario.node[54].nic.mac1609_4 	TooLittleTime 	0
scalar Floatingscenario.node[54].nic.mac1609_4 	TimesIntoBackoff 	0
scalar Floatingscenario.node[54].nic.mac1609_4 	SlotsBackoff 	0
scalar Floatingscenario.node[54].nic.mac1609_4 	NumInternalContention 	0
scalar Floatingscenario.node[54].nic.mac1609_4 	totalBusyTime 	0.03811596393
scalar Floatingscenario.node[54].mobility 	startTime 	54.1
scalar Floatingscenario.node[54].mobility 	totalTime 	130.5
scalar Floatingscenario.node[54].mobility 	stopTime 	184.7
scalar Floatingscenario.node[54].mobility 	minSpeed 	0.037920676705795
scalar Floatingscenario.node[54].mobility 	maxSpeed 	22.219831926851
scalar Floatingscenario.node[54].mobility 	totalDistance 	1623.8008807067
scalar Floatingscenario.node[54].mobility 	totalCO2Emission 	430.51330591628
scalar Floatingscenario.node[21].nic.phy80211p 	busyTime 	0.0001611051051051
scalar Floatingscenario.node[21].nic.mac1609_4 	ReceivedUnicastPackets 	0
scalar Floatingscenario.node[21].nic.mac1609_4 	ReceivedBroadcasts 	61
scalar Floatingscenario.node[21].nic.mac1609_4 	SentPackets 	7
scalar Floatingscenario.node[21].nic.mac1609_4 	SNIRLostPackets 	11
scalar Floatingscenario.node[21].nic.mac1609_4 	RXTXLostPackets 	1
scalar Floatingscenario.node[21].nic.mac1609_4 	TotalLostPackets 	12
scalar Floatingscenario.node[21].nic.mac1609_4 	DroppedPacketsInMac 	0
scalar Floatingscenario.node[21].nic.mac1609_4 	TooLittleTime 	0
scalar Floatingscenario.node[21].nic.mac1609_4 	TimesIntoBackoff 	10
scalar Floatingscenario.node[21].nic.mac1609_4 	SlotsBackoff 	31
scalar Floatingscenario.node[21].nic.mac1609_4 	NumInternalContention 	0
scalar Floatingscenario.node[21].nic.mac1609_4 	totalBusyTime 	0.02782783969
scalar Floatingscenario.node[21].mobility 	startTime 	21.1
scalar Floatingscenario.node[21].mobility 	totalTime 	166.4
scalar Floatingscenario.node[21].mobility 	stopTime 	187.6
scalar Floatingscenario.node[21].mobility 	minSpeed 	0.90791427083313
scalar Floatingscenario.node[21].mobility 	maxSpeed 	22.21986643774
scalar Floatingscenario.node[21].mobility 	totalDistance 	2332.7324183784
scalar Floatingscenario.node[21].mobility 	totalCO2Emission 	536.43205937297
scalar Floatingscenario.node[26].nic.phy80211p 	busyTime 	0.00010194857142857
scalar Floatingscenario.node[26].nic.mac1609_4 	ReceivedUnicastPackets 	0
scalar Floatingscenario.node[26].nic.mac1609_4 	ReceivedBroadcasts 	42
scalar Floatingscenario.node[26].nic.mac1609_4 	SentPackets 	1
scalar Floatingscenario.node[26].nic.mac1609_4 	SNIRLostPackets 	7
scalar Floatingscenario.node[26].nic.mac1609_4 	RXTXLostPackets 	0
scalar Floatingscenario.node[26].nic.mac1609_4 	TotalLostPackets 	7
scalar Floatingscenario.node[26].nic.mac1609_4 	DroppedPacketsInMac 	0
scalar Floatingscenario.node[26].nic.mac1609_4 	TooLittleTime 	0
scalar Floatingscenario.node[26].nic.mac1609_4 	TimesIntoBackoff 	1
scalar Floatingscenario.node[26].nic.mac1609_4 	SlotsBackoff 	1
scalar Floatingscenario.node[26].nic.mac1609_4 	NumInternalContention 	0
scalar Floatingscenario.node[26].nic.mac1609_4 	totalBusyTime 	0.016681345583
scalar Floatingscenario.node[26].mobility 	startTime 	26.1
scalar Floatingscenario.node[26].mobility 	totalTime 	174.9
scalar Floatingscenario.node[26].mobility 	stopTime 	201.1
scalar Floatingscenario.node[26].mobility 	minSpeed 	0.00091668224797328
scalar Floatingscenario.node[26].mobility 	maxSpeed 	27.779939378768
scalar Floatingscenario.node[26].mobility 	totalDistance 	2559.969017907
scalar Floatingscenario.node[26].mobility 	totalCO2Emission 	764.78578111575
scalar Floatingscenario.node[28].nic.phy80211p 	busyTime 	0.00033505882352941
scalar Floatingscenario.node[28].nic.mac1609_4 	ReceivedUnicastPackets 	0
scalar Floatingscenario.node[28].nic.mac1609_4 	ReceivedBroadcasts 	104
scalar Floatingscenario.node[28].nic.mac1609_4 	SentPackets 	12
scalar Floatingscenario.node[28].nic.mac1609_4 	SNIRLostPackets 	56
scalar Floatingscenario.node[28].nic.mac1609_4 	RXTXLostPackets 	5
scalar Floatingscenario.node[28].nic.mac1609_4 	TotalLostPackets 	61
scalar Floatingscenario.node[28].nic.mac1609_4 	DroppedPacketsInMac 	0
scalar Floatingscenario.node[28].nic.mac1609_4 	TooLittleTime 	0
scalar Floatingscenario.node[28].nic.mac1609_4 	TimesIntoBackoff 	22
scalar Floatingscenario.node[28].nic.mac1609_4 	SlotsBackoff 	66
scalar Floatingscenario.node[28].nic.mac1609_4 	NumInternalContention 	0
scalar Floatingscenario.node[28].nic.mac1609_4 	totalBusyTime 	0.053130049937
scalar Floatingscenario.node[28].mobility 	startTime 	28.1
scalar Floatingscenario.node[28].mobility 	totalTime 	178.4
scalar Floatingscenario.node[28].mobility 	stopTime 	206.6
scalar Floatingscenario.node[28].mobility 	minSpeed 	3.0361245908045e-06
scalar Floatingscenario.node[28].mobility 	maxSpeed 	22.219604025793
scalar Floatingscenario.node[28].mobility 	totalDistance 	2334.073920884
scalar Floatingscenario.node[28].mobility 	totalCO2Emission 	529.32461411239
scalar Floatingscenario.node[49].nic.phy80211p 	busyTime 	0.00056136238279095
scalar Floatingscenario.node[49].nic.mac1609_4 	ReceivedUnicastPackets 	0
scalar Floatingscenario.node[49].nic.mac1609_4 	ReceivedBroadcasts 	169
scalar Floatingscenario.node[49].nic.mac1609_4 	SentPackets 	16
scalar Floatingscenario.node[49].nic.mac1609_4 	SNIRLostPackets 	102
scalar Floatingscenario.node[49].nic.mac1609_4 	RXTXLostPackets 	3
scalar Floatingscenario.node[49].nic.mac1609_4 	TotalLostPackets 	105
scalar Floatingscenario.node[49].nic.mac1609_4 	DroppedPacketsInMac 	0
scalar Floatingscenario.node[49].nic.mac1609_4 	TooLittleTime 	0
scalar Floatingscenario.node[49].nic.mac1609_4 	TimesIntoBackoff 	16
scalar Floatingscenario.node[49].nic.mac1609_4 	SlotsBackoff 	55
scalar Floatingscenario.node[49].nic.mac1609_4 	NumInternalContention 	0
scalar Floatingscenario.node[49].nic.mac1609_4 	totalBusyTime 	0.088250475419
scalar Floatingscenario.node[49].mobility 	startTime 	49.1
scalar Floatingscenario.node[49].mobility 	totalTime 	181.2
scalar Floatingscenario.node[49].mobility 	stopTime 	230.4
scalar Floatingscenario.node[49].mobility 	minSpeed 	5.8568707558644e-14
scalar Floatingscenario.node[49].mobility 	maxSpeed 	22.219639334939
scalar Floatingscenario.node[49].mobility 	totalDistance 	2040.5088056704
scalar Floatingscenario.node[49].mobility 	totalCO2Emission 	533.22462066537
scalar Floatingscenario.node[4].nic.phy80211p 	busyTime 	0.00061360332749562
scalar Floatingscenario.node[4].nic.mac1609_4 	ReceivedUnicastPackets 	0
scalar Floatingscenario.node[4].nic.mac1609_4 	ReceivedBroadcasts 	254
scalar Floatingscenario.node[4].nic.mac1609_4 	SentPackets 	7
scalar Floatingscenario.node[4].nic.mac1609_4 	SNIRLostPackets 	117
scalar Floatingscenario.node[4].nic.mac1609_4 	RXTXLostPackets 	2
scalar Floatingscenario.node[4].nic.mac1609_4 	TotalLostPackets 	119
scalar Floatingscenario.node[4].nic.mac1609_4 	DroppedPacketsInMac 	0
scalar Floatingscenario.node[4].nic.mac1609_4 	TooLittleTime 	0
scalar Floatingscenario.node[4].nic.mac1609_4 	TimesIntoBackoff 	11
scalar Floatingscenario.node[4].nic.mac1609_4 	SlotsBackoff 	32
scalar Floatingscenario.node[4].nic.mac1609_4 	NumInternalContention 	0
scalar Floatingscenario.node[4].nic.mac1609_4 	totalBusyTime 	0.119916420713
scalar Floatingscenario.node[4].mobility 	startTime 	4.1
scalar Floatingscenario.node[4].mobility 	totalTime 	228.3
scalar Floatingscenario.node[4].mobility 	stopTime 	232.5
scalar Floatingscenario.node[4].mobility 	minSpeed 	1.1256911220885e-13
scalar Floatingscenario.node[4].mobility 	maxSpeed 	22.219992804453
scalar Floatingscenario.node[4].mobility 	totalDistance 	2044.6321680316
scalar Floatingscenario.node[4].mobility 	totalCO2Emission 	594.98942255742
scalar Floatingscenario.node[18].nic.phy80211p 	busyTime 	0.00096095730337078
scalar Floatingscenario.node[18].nic.mac1609_4 	ReceivedUnicastPackets 	0
scalar Floatingscenario.node[18].nic.mac1609_4 	ReceivedBroadcasts 	327
scalar Floatingscenario.node[18].nic.mac1609_4 	SentPackets 	5
scalar Floatingscenario.node[18].nic.mac1609_4 	SNIRLostPackets 	238
scalar Floatingscenario.node[18].nic.mac1609_4 	RXTXLostPackets 	0
scalar Floatingscenario.node[18].nic.mac1609_4 	TotalLostPackets 	238
scalar Floatingscenario.node[18].nic.mac1609_4 	DroppedPacketsInMac 	0
scalar Floatingscenario.node[18].nic.mac1609_4 	TooLittleTime 	0
scalar Floatingscenario.node[18].nic.mac1609_4 	TimesIntoBackoff 	5
scalar Floatingscenario.node[18].nic.mac1609_4 	SlotsBackoff 	28
scalar Floatingscenario.node[18].nic.mac1609_4 	NumInternalContention 	0
scalar Floatingscenario.node[18].nic.mac1609_4 	totalBusyTime 	0.163828842981
scalar Floatingscenario.node[18].mobility 	startTime 	18.1
scalar Floatingscenario.node[18].mobility 	totalTime 	222.4
scalar Floatingscenario.node[18].mobility 	stopTime 	240.6
scalar Floatingscenario.node[18].mobility 	minSpeed 	1.1255084684089e-13
scalar Floatingscenario.node[18].mobility 	maxSpeed 	27.779189090237
scalar Floatingscenario.node[18].mobility 	totalDistance 	1970.1110680315
scalar Floatingscenario.node[18].mobility 	totalCO2Emission 	712.12889233273
scalar Floatingscenario.node[98].nic.phy80211p 	busyTime 	8.0478345184228e-05
scalar Floatingscenario.node[98].nic.mac1609_4 	ReceivedUnicastPackets 	0
scalar Floatingscenario.node[98].nic.mac1609_4 	ReceivedBroadcasts 	34
scalar Floatingscenario.node[98].nic.mac1609_4 	SentPackets 	0
scalar Floatingscenario.node[98].nic.mac1609_4 	SNIRLostPackets 	0
scalar Floatingscenario.node[98].nic.mac1609_4 	RXTXLostPackets 	0
scalar Floatingscenario.node[98].nic.mac1609_4 	TotalLostPackets 	0
scalar Floatingscenario.node[98].nic.mac1609_4 	DroppedPacketsInMac 	0
scalar Floatingscenario.node[98].nic.mac1609_4 	TooLittleTime 	0
scalar Floatingscenario.node[98].nic.mac1609_4 	TimesIntoBackoff 	0
scalar Floatingscenario.node[98].nic.mac1609_4 	SlotsBackoff 	0
scalar Floatingscenario.node[98].nic.mac1609_4 	NumInternalContention 	0
scalar Floatingscenario.node[98].nic.mac1609_4 	totalBusyTime 	0.01245
scalar Floatingscenario.node[98].mobility 	startTime 	98.1
scalar Floatingscenario.node[98].mobility 	totalTime 	154.6
scalar Floatingscenario.node[98].mobility 	stopTime 	252.8
scalar Floatingscenario.node[98].mobility 	minSpeed 	9.9416579676567e-07
scalar Floatingscenario.node[98].mobility 	maxSpeed 	26.414952500623
scalar Floatingscenario.node[98].mobility 	totalDistance 	2096.0200480328
scalar Floatingscenario.node[98].mobility 	totalCO2Emission 	627.98738058171
scalar Floatingscenario.node[63].nic.phy80211p 	busyTime 	0.00092879896907216
scalar Floatingscenario.node[63].nic.mac1609_4 	ReceivedUnicastPackets 	0
scalar Floatingscenario.node[63].nic.mac1609_4 	ReceivedBroadcasts 	284
scalar Floatingscenario.node[63].nic.mac1609_4 	SentPackets 	8
scalar Floatingscenario.node[63].nic.mac1609_4 	SNIRLostPackets 	191
scalar Floatingscenario.node[63].nic.mac1609_4 	RXTXLostPackets 	0
scalar Floatingscenario.node[63].nic.mac1609_4 	TotalLostPackets 	191
scalar Floatingscenario.node[63].nic.mac1609_4 	DroppedPacketsInMac 	0
scalar Floatingscenario.node[63].nic.mac1609_4 	TooLittleTime 	0
scalar Floatingscenario.node[63].nic.mac1609_4 	TimesIntoBackoff 	13
scalar Floatingscenario.node[63].nic.mac1609_4 	SlotsBackoff 	35
scalar Floatingscenario.node[63].nic.mac1609_4 	NumInternalContention 	0
scalar Floatingscenario.node[63].nic.mac1609_4 	totalBusyTime 	0.142190334294
scalar Floatingscenario.node[63].mobility 	startTime 	63.1
scalar Floatingscenario.node[63].mobility 	totalTime 	193.9
scalar Floatingscenario.node[63].mobility 	stopTime 	257.1
scalar Floatingscenario.node[63].mobility 	minSpeed 	5.8568350729618e-14
scalar Floatingscenario.node[63].mobility 	maxSpeed 	22.219910423264
scalar Floatingscenario.node[63].mobility 	totalDistance 	2122.5051601356
scalar Floatingscenario.node[63].mobility 	totalCO2Emission 	536.310299488
scalar Floatingscenario.node[10].nic.phy80211p 	busyTime 	8.7129813418023e-05
scalar Floatingscenario.node[10].nic.mac1609_4 	ReceivedUnicastPackets 	0
scalar Floatingscenario.node[10].nic.mac1609_4 	ReceivedBroadcasts 	56
scalar Floatingscenario.node[10].nic.mac1609_4 	SentPackets 	10
scalar Floatingscenario.node[10].nic.mac1609_4 	SNIRLostPackets 	4
scalar Floatingscenario.node[10].nic.mac1609_4 	RXTXLostPackets 	0
scalar Floatingscenario.node[10].nic.mac1609_4 	TotalLostPackets 	4
scalar Floatingscenario.node[10].nic.mac1609_4 	DroppedPacketsInMac 	0
scalar Floatingscenario.node[10].nic.mac1609_4 	TooLittleTime 	0
scalar Floatingscenario.node[10].nic.mac1609_4 	TimesIntoBackoff 	11
scalar Floatingscenario.node[10].nic.mac1609_4 	SlotsBackoff 	38
scalar Floatingscenario.node[10].nic.mac1609_4 	NumInternalContention 	0
scalar Floatingscenario.node[10].nic.mac1609_4 	totalBusyTime 	0.0249114177
scalar Floatingscenario.node[10].mobility 	startTime 	10.1
scalar Floatingscenario.node[10].mobility 	totalTime 	251.8
scalar Floatingscenario.node[10].mobility 	stopTime 	262
scalar Floatingscenario.node[10].mobility 	minSpeed 	5.8544334616887e-14
scalar Floatingscenario.node[10].mobility 	maxSpeed 	27.779937864945
scalar Floatingscenario.node[10].mobility 	totalDistance 	2105.4477925169
scalar Floatingscenario.node[10].mobility 	totalCO2Emission 	717.50452845397
scalar Floatingscenario.node[112].nic.phy80211p 	busyTime 	0.00063935049019608
scalar Floatingscenario.node[112].nic.mac1609_4 	ReceivedUnicastPackets 	0
scalar Floatingscenario.node[112].nic.mac1609_4 	ReceivedBroadcasts 	175
scalar Floatingscenario.node[112].nic.mac1609_4 	SentPackets 	1
scalar Floatingscenario.node[112].nic.mac1609_4 	SNIRLostPackets 	103
scalar Floatingscenario.node[112].nic.mac1609_4 	RXTXLostPackets 	0
scalar Floatingscenario.node[112].nic.mac1609_4 	TotalLostPackets 	103
scalar Floatingscenario.node[112].nic.mac1609_4 	DroppedPacketsInMac 	0
scalar Floatingscenario.node[112].nic.mac1609_4 	TooLittleTime 	0
scalar Floatingscenario.node[112].nic.mac1609_4 	TimesIntoBackoff 	1
scalar Floatingscenario.node[112].nic.mac1609_4 	SlotsBackoff 	3
scalar Floatingscenario.node[112].nic.mac1609_4 	NumInternalContention 	0
scalar Floatingscenario.node[112].nic.mac1609_4 	totalBusyTime 	0.084355520013
scalar Floatingscenario.node[112].mobility 	startTime 	112.1
scalar Floatingscenario.node[112].mobility 	totalTime 	163.1
scalar Floatingscenario.node[112].mobility 	stopTime 	275.3
scalar Floatingscenario.node[112].mobility 	minSpeed 	2.3691921179778e-11
scalar Floatingscenario.node[112].mobility 	maxSpeed 	23.170036759581
scalar Floatingscenario.node[112].mobility 	totalDistance 	2092.0174021757
scalar Floatingscenario.node[112].mobility 	totalCO2Emission 	560.40504546594
scalar Floatingscenario.node[85].nic.phy80211p 	busyTime 	0.00061901076371092
scalar Floatingscenario.node[85].nic.mac1609_4 	ReceivedUnicastPackets 	0
scalar Floatingscenario.node[85].nic.mac1609_4 	ReceivedBroadcasts 	235
scalar Floatingscenario.node[85].nic.mac1609_4 	SentPackets 	15
scalar Floatingscenario.node[85].nic.mac1609_4 	SNIRLostPackets 	86
scalar Floatingscenario.node[85].nic.mac1609_4 	RXTXLostPackets 	11
scalar Floatingscenario.node[85].nic.mac1609_4 	TotalLostPackets 	97
scalar Floatingscenario.node[85].nic.mac1609_4 	DroppedPacketsInMac 	0
scalar Floatingscenario.node[85].nic.mac1609_4 	TooLittleTime 	0
scalar Floatingscenario.node[85].nic.mac1609_4 	TimesIntoBackoff 	26
scalar Floatingscenario.node[85].nic.mac1609_4 	SlotsBackoff 	85
scalar Floatingscenario.node[85].nic.mac1609_4 	NumInternalContention 	0
scalar Floatingscenario.node[85].nic.mac1609_4 	totalBusyTime 	0.110368382254
scalar Floatingscenario.node[85].mobility 	startTime 	85.1
scalar Floatingscenario.node[85].mobility 	totalTime 	195
scalar Floatingscenario.node[85].mobility 	stopTime 	280.2
scalar Floatingscenario.node[85].mobility 	minSpeed 	5.8538022855591e-14
scalar Floatingscenario.node[85].mobility 	maxSpeed 	22.2198083615
scalar Floatingscenario.node[85].mobility 	totalDistance 	1983.1400904011
scalar Floatingscenario.node[85].mobility 	totalCO2Emission 	538.78080906308
scalar Floatingscenario.node[7].nic.phy80211p 	busyTime 	0.00057771106259097
scalar Floatingscenario.node[7].nic.mac1609_4 	ReceivedUnicastPackets 	0
scalar Floatingscenario.node[7].nic.mac1609_4 	ReceivedBroadcasts 	297
scalar Floatingscenario.node[7].nic.mac1609_4 	SentPackets 	5
scalar Floatingscenario.node[7].nic.mac1609_4 	SNIRLostPackets 	122
scalar Floatingscenario.node[7].nic.mac1609_4 	RXTXLostPackets 	0
scalar Floatingscenario.node[7].nic.mac1609_4 	TotalLostPackets 	122
scalar Floatingscenario.node[7].nic.mac1609_4 	DroppedPacketsInMac 	0
scalar Floatingscenario.node[7].nic.mac1609_4 	TooLittleTime 	0
scalar Floatingscenario.node[7].nic.mac1609_4 	TimesIntoBackoff 	5
scalar Floatingscenario.node[7].nic.mac1609_4 	SlotsBackoff 	20
scalar Floatingscenario.node[7].nic.mac1609_4 	NumInternalContention 	0
scalar Floatingscenario.node[7].nic.mac1609_4 	totalBusyTime 	0.135522247082
scalar Floatingscenario.node[7].mobility 	startTime 	7.1
scalar Floatingscenario.node[7].mobility 	totalTime 	274.7
scalar Floatingscenario.node[7].mobility 	stopTime 	281.9
scalar Floatingscenario.node[7].mobility 	minSpeed 	1.1254264191807e-13
scalar Floatingscenario.node[7].mobility 	maxSpeed 	22.219547443429
scalar Floatingscenario.node[7].mobility 	totalDistance 	2719.8281225275
scalar Floatingscenario.node[7].mobility 	totalCO2Emission 	744.88528362123
scalar Floatingscenario.node[37].nic.phy80211p 	busyTime 	0.00048852101506741
scalar Floatingscenario.node[37].nic.mac1609_4 	ReceivedUnicastPackets 	0
scalar Floatingscenario.node[37].nic.mac1609_4 	ReceivedBroadcasts 	176
scalar Floatingscenario.node[37].nic.mac1609_4 	SentPackets 	2
scalar Floatingscenario.node[37].nic.mac1609_4 	SNIRLostPackets 	149
scalar Floatingscenario.node[37].nic.mac1609_4 	RXTXLostPackets 	0
scalar Floatingscenario.node[37].nic.mac1609_4 	TotalLostPackets 	149
scalar Floatingscenario.node[37].nic.mac1609_4 	DroppedPacketsInMac 	0
scalar Floatingscenario.node[37].nic.mac1609_4 	TooLittleTime 	0
scalar Floatingscenario.node[37].nic.mac1609_4 	TimesIntoBackoff 	2
scalar Floatingscenario.node[37].nic.mac1609_4 	SlotsBackoff 	6
scalar Floatingscenario.node[37].nic.mac1609_4 	NumInternalContention 	0
scalar Floatingscenario.node[37].nic.mac1609_4 	totalBusyTime 	0.091623324419
scalar Floatingscenario.node[37].mobility 	startTime 	37.1
scalar Floatingscenario.node[37].mobility 	totalTime 	252.1
scalar Floatingscenario.node[37].mobility 	stopTime 	289.3
scalar Floatingscenario.node[37].mobility 	minSpeed 	0
scalar Floatingscenario.node[37].mobility 	maxSpeed 	27.014232862117
scalar Floatingscenario.node[37].mobility 	totalDistance 	2949.4442097467
scalar Floatingscenario.node[37].mobility 	totalCO2Emission 	797.40368012301
scalar Floatingscenario.node[13].nic.phy80211p 	busyTime 	0.0010740233545648
scalar Floatingscenario.node[13].nic.mac1609_4 	ReceivedUnicastPackets 	0
scalar Floatingscenario.node[13].nic.mac1609_4 	ReceivedBroadcasts 	484
scalar Floatingscenario.node[13].nic.mac1609_4 	SentPackets 	0
scalar Floatingscenario.node[13].nic.mac1609_4 	SNIRLostPackets 	315
scalar Floatingscenario.node[13].nic.mac1609_4 	RXTXLostPackets 	0
scalar Floatingscenario.node[13].nic.mac1609_4 	TotalLostPackets 	315
scalar Floatingscenario.node[13].nic.mac1609_4 	DroppedPacketsInMac 	0
scalar Floatingscenario.node[13].nic.mac1609_4 	TooLittleTime 	0
scalar Floatingscenario.node[13].nic.mac1609_4 	TimesIntoBackoff 	0
scalar Floatingscenario.node[13].nic.mac1609_4 	SlotsBackoff 	0
scalar Floatingscenario.node[13].nic.mac1609_4 	NumInternalContention 	0
scalar Floatingscenario.node[13].nic.mac1609_4 	totalBusyTime 	0.235804703526
scalar Floatingscenario.node[13].mobility 	startTime 	13.1
scalar Floatingscenario.node[13].mobility 	totalTime 	282.5
scalar Floatingscenario.node[13].mobility 	stopTime 	295.7
scalar Floatingscenario.node[13].mobility 	minSpeed 	1.125395290997e-13
scalar Floatingscenario.node[13].mobility 	maxSpeed 	27.779770638815
scalar Floatingscenario.node[13].mobility 	totalDistance 	2032.6251565221
scalar Floatingscenario.node[13].mobility 	totalCO2Emission 	700.53337660398
scalar Floatingscenario.node[87].nic.phy80211p 	busyTime 	0.00079790052606408
scalar Floatingscenario.node[87].nic.mac1609_4 	ReceivedUnicastPackets 	0
scalar Floatingscenario.node[87].nic.mac1609_4 	ReceivedBroadcasts 	281
scalar Floatingscenario.node[87].nic.mac1609_4 	SentPackets 	16
scalar Floatingscenario.node[87].nic.mac1609_4 	SNIRLostPackets 	160
scalar Floatingscenario.node[87].nic.mac1609_4 	RXTXLostPackets 	0
scalar Floatingscenario.node[87].nic.mac1609_4 	TotalLostPackets 	160
scalar Floatingscenario.node[87].nic.mac1609_4 	DroppedPacketsInMac 	0
scalar Floatingscenario.node[87].nic.mac1609_4 	TooLittleTime 	0
scalar Floatingscenario.node[87].nic.mac1609_4 	TimesIntoBackoff 	16
scalar Floatingscenario.node[87].nic.mac1609_4 	SlotsBackoff 	61
scalar Floatingscenario.node[87].nic.mac1609_4 	NumInternalContention 	0
scalar Floatingscenario.node[87].nic.mac1609_4 	totalBusyTime 	0.138437884926
scalar Floatingscenario.node[87].mobility 	startTime 	87.1
scalar Floatingscenario.node[87].mobility 	totalTime 	209
scalar Floatingscenario.node[87].mobility 	stopTime 	296.2
scalar Floatingscenario.node[87].mobility 	minSpeed 	1.125490852184e-13
scalar Floatingscenario.node[87].mobility 	maxSpeed 	22.219768551656
scalar Floatingscenario.node[87].mobility 	totalDistance 	2175.787518934
scalar Floatingscenario.node[87].mobility 	totalCO2Emission 	555.80492468411
scalar Floatingscenario.node[0].nic.phy80211p 	busyTime 	0.0010642747582528
scalar Floatingscenario.node[0].nic.mac1609_4 	ReceivedUnicastPackets 	0
scalar Floatingscenario.node[0].nic.mac1609_4 	ReceivedBroadcasts 	490
scalar Floatingscenario.node[0].nic.mac1609_4 	SentPackets 	18
scalar Floatingscenario.node[0].nic.mac1609_4 	SNIRLostPackets 	350
scalar Floatingscenario.node[0].nic.mac1609_4 	RXTXLostPackets 	6
scalar Floatingscenario.node[0].nic.mac1609_4 	TotalLostPackets 	356
scalar Floatingscenario.node[0].nic.mac1609_4 	DroppedPacketsInMac 	0
scalar Floatingscenario.node[0].nic.mac1609_4 	TooLittleTime 	0
scalar Floatingscenario.node[0].nic.mac1609_4 	TimesIntoBackoff 	26
scalar Floatingscenario.node[0].nic.mac1609_4 	SlotsBackoff 	85
scalar Floatingscenario.node[0].nic.mac1609_4 	NumInternalContention 	0
scalar Floatingscenario.node[0].nic.mac1609_4 	totalBusyTime 	0.25128332
scalar Floatingscenario.node[0].mobility 	startTime 	0.1
scalar Floatingscenario.node[0].mobility 	totalTime 	299.8
scalar Floatingscenario.node[0].mobility 	stopTime 	300
scalar Floatingscenario.node[0].mobility 	minSpeed 	0
scalar Floatingscenario.node[0].mobility 	maxSpeed 	27.779896241473
scalar Floatingscenario.node[0].mobility 	totalDistance 	1811.4647211054
scalar Floatingscenario.node[0].mobility 	totalCO2Emission 	683.37951180662
scalar Floatingscenario.node[1].nic.phy80211p 	busyTime 	0.00010048511207762
scalar Floatingscenario.node[1].nic.mac1609_4 	ReceivedUnicastPackets 	0
scalar Floatingscenario.node[1].nic.mac1609_4 	ReceivedBroadcasts 	81
scalar Floatingscenario.node[1].nic.mac1609_4 	SentPackets 	4
scalar Floatingscenario.node[1].nic.mac1609_4 	SNIRLostPackets 	2
scalar Floatingscenario.node[1].nic.mac1609_4 	RXTXLostPackets 	2
scalar Floatingscenario.node[1].nic.mac1609_4 	TotalLostPackets 	4
scalar Floatingscenario.node[1].nic.mac1609_4 	DroppedPacketsInMac 	0
scalar Floatingscenario.node[1].nic.mac1609_4 	TooLittleTime 	0
scalar Floatingscenario.node[1].nic.mac1609_4 	TimesIntoBackoff 	7
scalar Floatingscenario.node[1].nic.mac1609_4 	SlotsBackoff 	9
scalar Floatingscenario.node[1].nic.mac1609_4 	NumInternalContention 	0
scalar Floatingscenario.node[1].nic.mac1609_4 	totalBusyTime 	0.031067292935
scalar Floatingscenario.node[1].mobility 	startTime 	1.1
scalar Floatingscenario.node[1].mobility 	totalTime 	298.8
scalar Floatingscenario.node[1].mobility 	stopTime 	300
scalar Floatingscenario.node[1].mobility 	minSpeed 	0
scalar Floatingscenario.node[1].mobility 	maxSpeed 	27.779942976178
scalar Floatingscenario.node[1].mobility 	totalDistance 	1761.6645468451
scalar Floatingscenario.node[1].mobility 	totalCO2Emission 	751.26631994155
scalar Floatingscenario.node[100].nic.phy80211p 	busyTime 	0.0024184492246124
scalar Floatingscenario.node[100].nic.mac1609_4 	ReceivedUnicastPackets 	0
scalar Floatingscenario.node[100].nic.mac1609_4 	ReceivedBroadcasts 	586
scalar Floatingscenario.node[100].nic.mac1609_4 	SentPackets 	20
scalar Floatingscenario.node[100].nic.mac1609_4 	SNIRLostPackets 	686
scalar Floatingscenario.node[100].nic.mac1609_4 	RXTXLostPackets 	22
scalar Floatingscenario.node[100].nic.mac1609_4 	TotalLostPackets 	708
scalar Floatingscenario.node[100].nic.mac1609_4 	DroppedPacketsInMac 	0
scalar Floatingscenario.node[100].nic.mac1609_4 	TooLittleTime 	0
scalar Floatingscenario.node[100].nic.mac1609_4 	TimesIntoBackoff 	36
scalar Floatingscenario.node[100].nic.mac1609_4 	SlotsBackoff 	145
scalar Floatingscenario.node[100].nic.mac1609_4 	NumInternalContention 	0
scalar Floatingscenario.node[100].nic.mac1609_4 	totalBusyTime 	0.330082468202
scalar Floatingscenario.node[100].mobility 	startTime 	100.1
scalar Floatingscenario.node[100].mobility 	totalTime 	199.8
scalar Floatingscenario.node[100].mobility 	stopTime 	300
scalar Floatingscenario.node[100].mobility 	minSpeed 	5.8541343818083e-14
scalar Floatingscenario.node[100].mobility 	maxSpeed 	22.216953487792
scalar Floatingscenario.node[100].mobility 	totalDistance 	850.40162429182
scalar Floatingscenario.node[100].mobility 	totalCO2Emission 	457.64669103285
scalar Floatingscenario.node[101].nic.phy80211p 	busyTime 	0.00092013574660633
scalar Floatingscenario.node[101].nic.mac1609_4 	ReceivedUnicastPackets 	0
scalar Floatingscenario.node[101].nic.mac1609_4 	ReceivedBroadcasts 	383
scalar Floatingscenario.node[101].nic.mac1609_4 	SentPackets 	1
scalar Floatingscenario.node[101].nic.mac1609_4 	SNIRLostPackets 	104
scalar Floatingscenario.node[101].nic.mac1609_4 	RXTXLostPackets 	0
scalar Floatingscenario.node[101].nic.mac1609_4 	TotalLostPackets 	104
scalar Floatingscenario.node[101].nic.mac1609_4 	DroppedPacketsInMac 	0
scalar Floatingscenario.node[101].nic.mac1609_4 	TooLittleTime 	0
scalar Floatingscenario.node[101].nic.mac1609_4 	TimesIntoBackoff 	1
scalar Floatingscenario.node[101].nic.mac1609_4 	SlotsBackoff 	0
scalar Floatingscenario.node[101].nic.mac1609_4 	NumInternalContention 	0
scalar Floatingscenario.node[101].nic.mac1609_4 	totalBusyTime 	0.163219360911
scalar Floatingscenario.node[101].mobility 	startTime 	101.1
scalar Floatingscenario.node[101].mobility 	totalTime 	198.8
scalar Floatingscenario.node[101].mobility 	stopTime 	300
scalar Floatingscenario.node[101].mobility 	minSpeed 	3.1537881180936e-14
scalar Floatingscenario.node[101].mobility 	maxSpeed 	27.165965730198
scalar Floatingscenario.node[101].mobility 	totalDistance 	910.70542826805
scalar Floatingscenario.node[101].mobility 	totalCO2Emission 	505.3237315113
scalar Floatingscenario.node[102].nic.phy80211p 	busyTime 	0.00072828701364325
scalar Floatingscenario.node[102].nic.mac1609_4 	ReceivedUnicastPackets 	0
scalar Floatingscenario.node[102].nic.mac1609_4 	ReceivedBroadcasts 	283
scalar Floatingscenario.node[102].nic.mac1609_4 	SentPackets 	10
scalar Floatingscenario.node[102].nic.mac1609_4 	SNIRLostPackets 	101
scalar Floatingscenario.node[102].nic.mac1609_4 	RXTXLostPackets 	0
scalar Floatingscenario.node[102].nic.mac1609_4 	TotalLostPackets 	101
scalar Floatingscenario.node[102].nic.mac1609_4 	DroppedPacketsInMac 	0
scalar Floatingscenario.node[102].nic.mac1609_4 	TooLittleTime 	0
scalar Floatingscenario.node[102].nic.mac1609_4 	TimesIntoBackoff 	14
scalar Floatingscenario.node[102].nic.mac1609_4 	SlotsBackoff 	48
scalar Floatingscenario.node[102].nic.mac1609_4 	NumInternalContention 	0
scalar Floatingscenario.node[102].nic.mac1609_4 	totalBusyTime 	0.1275400909
scalar Floatingscenario.node[102].mobility 	startTime 	102.1
scalar Floatingscenario.node[102].mobility 	totalTime 	197.8
scalar Floatingscenario.node[102].mobility 	stopTime 	300
scalar Floatingscenario.node[102].mobility 	minSpeed 	2.3082111989953e-13
scalar Floatingscenario.node[102].mobility 	maxSpeed 	22.407172836526
scalar Floatingscenario.node[102].mobility 	totalDistance 	1124.6313003489
scalar Floatingscenario.node[102].mobility 	totalCO2Emission 	363.41636343402
scalar Floatingscenario.node[103].nic.phy80211p 	busyTime 	0.0024865769426105
scalar Floatingscenario.node[103].nic.mac1609_4 	ReceivedUnicastPackets 	0
scalar Floatingscenario.node[103].nic.mac1609_4 	ReceivedBroadcasts 	566
scalar Floatingscenario.node[103].nic.mac1609_4 	SentPackets 	1
scalar Floatingscenario.node[103].nic.mac1609_4 	SNIRLostPackets 	721
scalar Floatingscenario.node[103].nic.mac1609_4 	RXTXLostPackets 	0
scalar Floatingscenario.node[103].nic.mac1609_4 	TotalLostPackets 	721
scalar Floatingscenario.node[103].nic.mac1609_4 	DroppedPacketsInMac 	0
scalar Floatingscenario.node[103].nic.mac1609_4 	TooLittleTime 	0
scalar Floatingscenario.node[103].nic.mac1609_4 	TimesIntoBackoff 	1
scalar Floatingscenario.node[103].nic.mac1609_4 	SlotsBackoff 	3
scalar Floatingscenario.node[103].nic.mac1609_4 	NumInternalContention 	0
scalar Floatingscenario.node[103].nic.mac1609_4 	totalBusyTime 	0.325596779825
scalar Floatingscenario.node[103].mobility 	startTime 	103.1
scalar Floatingscenario.node[103].mobility 	totalTime 	196.8
scalar Floatingscenario.node[103].mobility 	stopTime 	300
scalar Floatingscenario.node[103].mobility 	minSpeed 	0
scalar Floatingscenario.node[103].mobility 	maxSpeed 	18.30516559243
scalar Floatingscenario.node[103].mobility 	totalDistance 	772.36367312401
scalar Floatingscenario.node[103].mobility 	totalCO2Emission 	369.23542875373
scalar Floatingscenario.node[104].nic.phy80211p 	busyTime 	0.0012991117917305
scalar Floatingscenario.node[104].nic.mac1609_4 	ReceivedUnicastPackets 	0
scalar Floatingscenario.node[104].nic.mac1609_4 	ReceivedBroadcasts 	450
scalar Floatingscenario.node[104].nic.mac1609_4 	SentPackets 	1
scalar Floatingscenario.node[104].nic.mac1609_4 	SNIRLostPackets 	222
scalar Floatingscenario.node[104].nic.mac1609_4 	RXTXLostPackets 	0
scalar Floatingscenario.node[104].nic.mac1609_4 	TotalLostPackets 	222
scalar Floatingscenario.node[104].nic.mac1609_4 	DroppedPacketsInMac 	0
scalar Floatingscenario.node[104].nic.mac1609_4 	TooLittleTime 	0
scalar Floatingscenario.node[104].nic.mac1609_4 	TimesIntoBackoff 	1
scalar Floatingscenario.node[104].nic.mac1609_4 	SlotsBackoff 	0
scalar Floatingscenario.node[104].nic.mac1609_4 	NumInternalContention 	0
scalar Floatingscenario.node[104].nic.mac1609_4 	totalBusyTime 	0.206594178347
scalar Floatingscenario.node[104].mobility 	startTime 	104.1
scalar Floatingscenario.node[104].mobility 	totalTime 	195.8
scalar Floatingscenario.node[104].mobility 	stopTime 	300
scalar Floatingscenario.node[104].mobility 	minSpeed 	3.1544697511929e-14
scalar Floatingscenario.node[104].mobility 	maxSpeed 	27.772126644505
scalar Floatingscenario.node[104].mobility 	totalDistance 	1094.5754868813
scalar Floatingscenario.node[104].mobility 	totalCO2Emission 	515.61594747543
scalar Floatingscenario.node[105].nic.phy80211p 	busyTime 	0.0025575320677271
scalar Floatingscenario.node[105].nic.mac1609_4 	ReceivedUnicastPackets 	0
scalar Floatingscenario.node[105].nic.mac1609_4 	ReceivedBroadcasts 	597
scalar Floatingscenario.node[105].nic.mac1609_4 	SentPackets 	0
scalar Floatingscenario.node[105].nic.mac1609_4 	SNIRLostPackets 	714
scalar Floatingscenario.node[105].nic.mac1609_4 	RXTXLostPackets 	0
scalar Floatingscenario.node[105].nic.mac1609_4 	TotalLostPackets 	714
scalar Floatingscenario.node[105].nic.mac1609_4 	DroppedPacketsInMac 	0
scalar Floatingscenario.node[105].nic.mac1609_4 	TooLittleTime 	0
scalar Floatingscenario.node[105].nic.mac1609_4 	TimesIntoBackoff 	0
scalar Floatingscenario.node[105].nic.mac1609_4 	SlotsBackoff 	0
scalar Floatingscenario.node[105].nic.mac1609_4 	NumInternalContention 	0
scalar Floatingscenario.node[105].nic.mac1609_4 	totalBusyTime 	0.329407008304
scalar Floatingscenario.node[105].mobility 	startTime 	105.1
scalar Floatingscenario.node[105].mobility 	totalTime 	194.8
scalar Floatingscenario.node[105].mobility 	stopTime 	300
scalar Floatingscenario.node[105].mobility 	minSpeed 	5.8537384807791e-14
scalar Floatingscenario.node[105].mobility 	maxSpeed 	18.779918966927
scalar Floatingscenario.node[105].mobility 	totalDistance 	815.6473692575
scalar Floatingscenario.node[105].mobility 	totalCO2Emission 	418.54768301708
scalar Floatingscenario.node[106].nic.phy80211p 	busyTime 	0.0015626869520371
scalar Floatingscenario.node[106].nic.mac1609_4 	ReceivedUnicastPackets 	0
scalar Floatingscenario.node[106].nic.mac1609_4 	ReceivedBroadcasts 	339
scalar Floatingscenario.node[106].nic.mac1609_4 	SentPackets 	0
scalar Floatingscenario.node[106].nic.mac1609_4 	SNIRLostPackets 	458
scalar Floatingscenario.node[106].nic.mac1609_4 	RXTXLostPackets 	0
scalar Floatingscenario.node[106].nic.mac1609_4 	TotalLostPackets 	458
scalar Floatingscenario.node[106].nic.mac1609_4 	DroppedPacketsInMac 	0
scalar Floatingscenario.node[106].nic.mac1609_4 	TooLittleTime 	0
scalar Floatingscenario.node[106].nic.mac1609_4 	TimesIntoBackoff 	0
scalar Floatingscenario.node[106].nic.mac1609_4 	SlotsBackoff 	0
scalar Floatingscenario.node[106].nic.mac1609_4 	NumInternalContention 	0
scalar Floatingscenario.node[106].nic.mac1609_4 	totalBusyTime 	0.190711885523
scalar Floatingscenario.node[106].mobility 	startTime 	106.1
scalar Floatingscenario.node[106].mobility 	totalTime 	193.8
scalar Floatingscenario.node[106].mobility 	stopTime 	300
scalar Floatingscenario.node[106].mobility 	minSpeed 	3.1538909569525e-14
scalar Floatingscenario.node[106].mobility 	maxSpeed 	22.219917753595
scalar Floatingscenario.node[106].mobility 	totalDistance 	1698.6321015941
scalar Floatingscenario.node[106].mobility 	totalCO2Emission 	501.81250074664
scalar Floatingscenario.node[107].nic.phy80211p 	busyTime 	0.0017544167962675
scalar Floatingscenario.node[107].nic.mac1609_4 	ReceivedUnicastPackets 	0
scalar Floatingscenario.node[107].nic.mac1609_4 	ReceivedBroadcasts 	372
scalar Floatingscenario.node[107].nic.mac1609_4 	SentPackets 	13
scalar Floatingscenario.node[107].nic.mac1609_4 	SNIRLostPackets 	519
scalar Floatingscenario.node[107].nic.mac1609_4 	RXTXLostPackets 	4
scalar Floatingscenario.node[107].nic.mac1609_4 	TotalLostPackets 	523
scalar Floatingscenario.node[107].nic.mac1609_4 	DroppedPacketsInMac 	0
scalar Floatingscenario.node[107].nic.mac1609_4 	TooLittleTime 	0
scalar Floatingscenario.node[107].nic.mac1609_4 	TimesIntoBackoff 	19
scalar Floatingscenario.node[107].nic.mac1609_4 	SlotsBackoff 	43
scalar Floatingscenario.node[107].nic.mac1609_4 	NumInternalContention 	0
scalar Floatingscenario.node[107].nic.mac1609_4 	totalBusyTime 	0.217950887473
scalar Floatingscenario.node[107].mobility 	startTime 	107.1
scalar Floatingscenario.node[107].mobility 	totalTime 	192.8
scalar Floatingscenario.node[107].mobility 	stopTime 	300
scalar Floatingscenario.node[107].mobility 	minSpeed 	5.8592349250529e-14
scalar Floatingscenario.node[107].mobility 	maxSpeed 	22.219522639513
scalar Floatingscenario.node[107].mobility 	totalDistance 	1739.293215518
scalar Floatingscenario.node[107].mobility 	totalCO2Emission 	521.28897735086
scalar Floatingscenario.node[108].nic.phy80211p 	busyTime 	0.0022009327774883
scalar Floatingscenario.node[108].nic.mac1609_4 	ReceivedUnicastPackets 	0
scalar Floatingscenario.node[108].nic.mac1609_4 	ReceivedBroadcasts 	495
scalar Floatingscenario.node[108].nic.mac1609_4 	SentPackets 	0
scalar Floatingscenario.node[108].nic.mac1609_4 	SNIRLostPackets 	616
scalar Floatingscenario.node[108].nic.mac1609_4 	RXTXLostPackets 	0
scalar Floatingscenario.node[108].nic.mac1609_4 	TotalLostPackets 	616
scalar Floatingscenario.node[108].nic.mac1609_4 	DroppedPacketsInMac 	0
scalar Floatingscenario.node[108].nic.mac1609_4 	TooLittleTime 	0
scalar Floatingscenario.node[108].nic.mac1609_4 	TimesIntoBackoff 	0
scalar Floatingscenario.node[108].nic.mac1609_4 	SlotsBackoff 	0
scalar Floatingscenario.node[108].nic.mac1609_4 	NumInternalContention 	0
scalar Floatingscenario.node[108].nic.mac1609_4 	totalBusyTime 	0.276190057205
scalar Floatingscenario.node[108].mobility 	startTime 	108.1
scalar Floatingscenario.node[108].mobility 	totalTime 	191.8
scalar Floatingscenario.node[108].mobility 	stopTime 	300
scalar Floatingscenario.node[108].mobility 	minSpeed 	7.9120302411756e-15
scalar Floatingscenario.node[108].mobility 	maxSpeed 	22.219061508568
scalar Floatingscenario.node[108].mobility 	totalDistance 	860.35506399008
scalar Floatingscenario.node[108].mobility 	totalCO2Emission 	381.25655569929
scalar Floatingscenario.node[109].nic.phy80211p 	busyTime 	5.1110529072813e-05
scalar Floatingscenario.node[109].nic.mac1609_4 	ReceivedUnicastPackets 	0
scalar Floatingscenario.node[109].nic.mac1609_4 	ReceivedBroadcasts 	27
scalar Floatingscenario.node[109].nic.mac1609_4 	SentPackets 	0
scalar Floatingscenario.node[109].nic.mac1609_4 	SNIRLostPackets 	2
scalar Floatingscenario.node[109].nic.mac1609_4 	RXTXLostPackets 	0
scalar Floatingscenario.node[109].nic.mac1609_4 	TotalLostPackets 	2
scalar Floatingscenario.node[109].nic.mac1609_4 	DroppedPacketsInMac 	0
scalar Floatingscenario.node[109].nic.mac1609_4 	TooLittleTime 	0
scalar Floatingscenario.node[109].nic.mac1609_4 	TimesIntoBackoff 	0
scalar Floatingscenario.node[109].nic.mac1609_4 	SlotsBackoff 	0
scalar Floatingscenario.node[109].nic.mac1609_4 	NumInternalContention 	0
scalar Floatingscenario.node[109].nic.mac1609_4 	totalBusyTime 	0.009478677128
scalar Floatingscenario.node[109].mobility 	startTime 	109.1
scalar Floatingscenario.node[109].mobility 	totalTime 	190.8
scalar Floatingscenario.node[109].mobility 	stopTime 	300
scalar Floatingscenario.node[109].mobility 	minSpeed 	5.8543896685726e-14
scalar Floatingscenario.node[109].mobility 	maxSpeed 	27.779907406515
scalar Floatingscenario.node[109].mobility 	totalDistance 	869.66189572575
scalar Floatingscenario.node[109].mobility 	totalCO2Emission 	455.0326101052
scalar Floatingscenario.node[11].nic.phy80211p 	busyTime 	0.0016916199376948
scalar Floatingscenario.node[11].nic.mac1609_4 	ReceivedUnicastPackets 	0
scalar Floatingscenario.node[11].nic.mac1609_4 	ReceivedBroadcasts 	681
scalar Floatingscenario.node[11].nic.mac1609_4 	SentPackets 	48
scalar Floatingscenario.node[11].nic.mac1609_4 	SNIRLostPackets 	604
scalar Floatingscenario.node[11].nic.mac1609_4 	RXTXLostPackets 	46
scalar Floatingscenario.node[11].nic.mac1609_4 	TotalLostPackets 	650
scalar Floatingscenario.node[11].nic.mac1609_4 	DroppedPacketsInMac 	0
scalar Floatingscenario.node[11].nic.mac1609_4 	TooLittleTime 	0
scalar Floatingscenario.node[11].nic.mac1609_4 	TimesIntoBackoff 	89
scalar Floatingscenario.node[11].nic.mac1609_4 	SlotsBackoff 	331
scalar Floatingscenario.node[11].nic.mac1609_4 	NumInternalContention 	0
scalar Floatingscenario.node[11].nic.mac1609_4 	totalBusyTime 	0.355297252218
scalar Floatingscenario.node[11].mobility 	startTime 	11.1
scalar Floatingscenario.node[11].mobility 	totalTime 	288.8
scalar Floatingscenario.node[11].mobility 	stopTime 	300
scalar Floatingscenario.node[11].mobility 	minSpeed 	5.8541388420277e-14
scalar Floatingscenario.node[11].mobility 	maxSpeed 	26.171706335485
scalar Floatingscenario.node[11].mobility 	totalDistance 	1275.5202657787
scalar Floatingscenario.node[11].mobility 	totalCO2Emission 	698.92980847608
scalar Floatingscenario.node[110].nic.phy80211p 	busyTime 	0.0026863717746183
scalar Floatingscenario.node[110].nic.mac1609_4 	ReceivedUnicastPackets 	0
scalar Floatingscenario.node[110].nic.mac1609_4 	ReceivedBroadcasts 	586
scalar Floatingscenario.node[110].nic.mac1609_4 	SentPackets 	1
scalar Floatingscenario.node[110].nic.mac1609_4 	SNIRLostPackets 	756
scalar Floatingscenario.node[110].nic.mac1609_4 	RXTXLostPackets 	0
scalar Floatingscenario.node[110].nic.mac1609_4 	TotalLostPackets 	756
scalar Floatingscenario.node[110].nic.mac1609_4 	DroppedPacketsInMac 	0
scalar Floatingscenario.node[110].nic.mac1609_4 	TooLittleTime 	0
scalar Floatingscenario.node[110].nic.mac1609_4 	TimesIntoBackoff 	1
scalar Floatingscenario.node[110].nic.mac1609_4 	SlotsBackoff 	1
scalar Floatingscenario.node[110].nic.mac1609_4 	NumInternalContention 	0
scalar Floatingscenario.node[110].nic.mac1609_4 	totalBusyTime 	0.335875584001
scalar Floatingscenario.node[110].mobility 	startTime 	110.1
scalar Floatingscenario.node[110].mobility 	totalTime 	189.8
scalar Floatingscenario.node[110].mobility 	stopTime 	300
scalar Floatingscenario.node[110].mobility 	minSpeed 	1.4664353939914e-14
scalar Floatingscenario.node[110].mobility 	maxSpeed 	20.511619170249
scalar Floatingscenario.node[110].mobility 	totalDistance 	611.88466476041
scalar Floatingscenario.node[110].mobility 	totalCO2Emission 	339.26177135732
scalar Floatingscenario.node[111].nic.phy80211p 	busyTime 	0.0010265907887771
scalar Floatingscenario.node[111].nic.mac1609_4 	ReceivedUnicastPackets 	0
scalar Floatingscenario.node[111].nic.mac1609_4 	ReceivedBroadcasts 	415
scalar Floatingscenario.node[111].nic.mac1609_4 	SentPackets 	0
scalar Floatingscenario.node[111].nic.mac1609_4 	SNIRLostPackets 	100
scalar Floatingscenario.node[111].nic.mac1609_4 	RXTXLostPackets 	0
scalar Floatingscenario.node[111].nic.mac1609_4 	TotalLostPackets 	100
scalar Floatingscenario.node[111].nic.mac1609_4 	DroppedPacketsInMac 	0
scalar Floatingscenario.node[111].nic.mac1609_4 	TooLittleTime 	0
scalar Floatingscenario.node[111].nic.mac1609_4 	TimesIntoBackoff 	0
scalar Floatingscenario.node[111].nic.mac1609_4 	SlotsBackoff 	0
scalar Floatingscenario.node[111].nic.mac1609_4 	NumInternalContention 	0
scalar Floatingscenario.node[111].nic.mac1609_4 	totalBusyTime 	0.173460428144
scalar Floatingscenario.node[111].mobility 	startTime 	111.1
scalar Floatingscenario.node[111].mobility 	totalTime 	188.8
scalar Floatingscenario.node[111].mobility 	stopTime 	300
scalar Floatingscenario.node[111].mobility 	minSpeed 	5.8544544657797e-14
scalar Floatingscenario.node[111].mobility 	maxSpeed 	26.758515710184
scalar Floatingscenario.node[111].mobility 	totalDistance 	766.0254716465
scalar Floatingscenario.node[111].mobility 	totalCO2Emission 	470.14020925034
scalar Floatingscenario.node[113].nic.phy80211p 	busyTime 	0.0020242857142857
scalar Floatingscenario.node[113].nic.mac1609_4 	ReceivedUnicastPackets 	0
scalar Floatingscenario.node[113].nic.mac1609_4 	ReceivedBroadcasts 	412
scalar Floatingscenario.node[113].nic.mac1609_4 	SentPackets 	0
scalar Floatingscenario.node[113].nic.mac1609_4 	SNIRLostPackets 	583
scalar Floatingscenario.node[113].nic.mac1609_4 	RXTXLostPackets 	0
scalar Floatingscenario.node[113].nic.mac1609_4 	TotalLostPackets 	583
scalar Floatingscenario.node[113].nic.mac1609_4 	DroppedPacketsInMac 	0
scalar Floatingscenario.node[113].nic.mac1609_4 	TooLittleTime 	0
scalar Floatingscenario.node[113].nic.mac1609_4 	TimesIntoBackoff 	0
scalar Floatingscenario.node[113].nic.mac1609_4 	SlotsBackoff 	0
scalar Floatingscenario.node[113].nic.mac1609_4 	NumInternalContention 	0
scalar Floatingscenario.node[113].nic.mac1609_4 	totalBusyTime 	0.238269757107
scalar Floatingscenario.node[113].mobility 	startTime 	113.1
scalar Floatingscenario.node[113].mobility 	totalTime 	186.8
scalar Floatingscenario.node[113].mobility 	stopTime 	300
scalar Floatingscenario.node[113].mobility 	minSpeed 	5.8537712209038e-14
scalar Floatingscenario.node[113].mobility 	maxSpeed 	22.21923652831
scalar Floatingscenario.node[113].mobility 	totalDistance 	1654.1987041458
scalar Floatingscenario.node[113].mobility 	totalCO2Emission 	498.71727592944
scalar Floatingscenario.node[114].nic.phy80211p 	busyTime 	0.00085952124798278
scalar Floatingscenario.node[114].nic.mac1609_4 	ReceivedUnicastPackets 	0
scalar Floatingscenario.node[114].nic.mac1609_4 	ReceivedBroadcasts 	315
scalar Floatingscenario.node[114].nic.mac1609_4 	SentPackets 	0
scalar Floatingscenario.node[114].nic.mac1609_4 	SNIRLostPackets 	110
scalar Floatingscenario.node[114].nic.mac1609_4 	RXTXLostPackets 	0
scalar Floatingscenario.node[114].nic.mac1609_4 	TotalLostPackets 	110
scalar Floatingscenario.node[114].nic.mac1609_4 	DroppedPacketsInMac 	0
scalar Floatingscenario.node[114].nic.mac1609_4 	TooLittleTime 	0
scalar Floatingscenario.node[114].nic.mac1609_4 	TimesIntoBackoff 	0
scalar Floatingscenario.node[114].nic.mac1609_4 	SlotsBackoff 	0
scalar Floatingscenario.node[114].nic.mac1609_4 	NumInternalContention 	0
scalar Floatingscenario.node[114].nic.mac1609_4 	totalBusyTime 	0.136387817005
scalar Floatingscenario.node[114].mobility 	startTime 	114.1
scalar Floatingscenario.node[114].mobility 	totalTime 	185.8
scalar Floatingscenario.node[114].mobility 	stopTime 	300
scalar Floatingscenario.node[114].mobility 	minSpeed 	5.8554838524567e-14
scalar Floatingscenario.node[114].mobility 	maxSpeed 	23.075818008546
scalar Floatingscenario.node[114].mobility 	totalDistance 	895.46311422735
scalar Floatingscenario.node[114].mobility 	totalCO2Emission 	376.35099786106
scalar Floatingscenario.node[115].nic.phy80211p 	busyTime 	0.0010848783126014
scalar Floatingscenario.node[115].nic.mac1609_4 	ReceivedUnicastPackets 	0
scalar Floatingscenario.node[115].nic.mac1609_4 	ReceivedBroadcasts 	379
scalar Floatingscenario.node[115].nic.mac1609_4 	SentPackets 	22
scalar Floatingscenario.node[115].nic.mac1609_4 	SNIRLostPackets 	151
scalar Floatingscenario.node[115].nic.mac1609_4 	RXTXLostPackets 	9
scalar Floatingscenario.node[115].nic.mac1609_4 	TotalLostPackets 	160
scalar Floatingscenario.node[115].nic.mac1609_4 	DroppedPacketsInMac 	0
scalar Floatingscenario.node[115].nic.mac1609_4 	TooLittleTime 	0
scalar Floatingscenario.node[115].nic.mac1609_4 	TimesIntoBackoff 	32
scalar Floatingscenario.node[115].nic.mac1609_4 	SlotsBackoff 	142
scalar Floatingscenario.node[115].nic.mac1609_4 	NumInternalContention 	0
scalar Floatingscenario.node[115].nic.mac1609_4 	totalBusyTime 	0.175517036212
scalar Floatingscenario.node[115].mobility 	startTime 	115.1
scalar Floatingscenario.node[115].mobility 	totalTime 	184.8
scalar Floatingscenario.node[115].mobility 	stopTime 	300
scalar Floatingscenario.node[115].mobility 	minSpeed 	3.1473292818431e-08
scalar Floatingscenario.node[115].mobility 	maxSpeed 	27.779551559573
scalar Floatingscenario.node[115].mobility 	totalDistance 	1910.6403050196
scalar Floatingscenario.node[115].mobility 	totalCO2Emission 	579.46079624596
scalar Floatingscenario.node[116].nic.phy80211p 	busyTime 	0.00060228928765633
scalar Floatingscenario.node[116].nic.mac1609_4 	ReceivedUnicastPackets 	0
scalar Floatingscenario.node[116].nic.mac1609_4 	ReceivedBroadcasts 	243
scalar Floatingscenario.node[116].nic.mac1609_4 	SentPackets 	1
scalar Floatingscenario.node[116].nic.mac1609_4 	SNIRLostPackets 	54
scalar Floatingscenario.node[116].nic.mac1609_4 	RXTXLostPackets 	0
scalar Floatingscenario.node[116].nic.mac1609_4 	TotalLostPackets 	54
scalar Floatingscenario.node[116].nic.mac1609_4 	DroppedPacketsInMac 	0
scalar Floatingscenario.node[116].nic.mac1609_4 	TooLittleTime 	0
scalar Floatingscenario.node[116].nic.mac1609_4 	TimesIntoBackoff 	1
scalar Floatingscenario.node[116].nic.mac1609_4 	SlotsBackoff 	2
scalar Floatingscenario.node[116].nic.mac1609_4 	NumInternalContention 	0
scalar Floatingscenario.node[116].nic.mac1609_4 	totalBusyTime 	0.098471432685
scalar Floatingscenario.node[116].mobility 	startTime 	116.1
scalar Floatingscenario.node[116].mobility 	totalTime 	183.8
scalar Floatingscenario.node[116].mobility 	stopTime 	300
scalar Floatingscenario.node[116].mobility 	minSpeed 	0
scalar Floatingscenario.node[116].mobility 	maxSpeed 	27.779659143155
scalar Floatingscenario.node[116].mobility 	totalDistance 	1299.6729596558
scalar Floatingscenario.node[116].mobility 	totalCO2Emission 	496.56376261304
scalar Floatingscenario.node[117].nic.phy80211p 	busyTime 	0.0024748277747404
scalar Floatingscenario.node[117].nic.mac1609_4 	ReceivedUnicastPackets 	0
scalar Floatingscenario.node[117].nic.mac1609_4 	ReceivedBroadcasts 	521
scalar Floatingscenario.node[117].nic.mac1609_4 	SentPackets 	0
scalar Floatingscenario.node[117].nic.mac1609_4 	SNIRLostPackets 	669
scalar Floatingscenario.node[117].nic.mac1609_4 	RXTXLostPackets 	0
scalar Floatingscenario.node[117].nic.mac1609_4 	TotalLostPackets 	669
scalar Floatingscenario.node[117].nic.mac1609_4 	DroppedPacketsInMac 	0
scalar Floatingscenario.node[117].nic.mac1609_4 	TooLittleTime 	0
scalar Floatingscenario.node[117].nic.mac1609_4 	TimesIntoBackoff 	0
scalar Floatingscenario.node[117].nic.mac1609_4 	SlotsBackoff 	0
scalar Floatingscenario.node[117].nic.mac1609_4 	NumInternalContention 	0
scalar Floatingscenario.node[117].nic.mac1609_4 	totalBusyTime 	0.291933842981
scalar Floatingscenario.node[117].mobility 	startTime 	117.1
scalar Floatingscenario.node[117].mobility 	totalTime 	182.8
scalar Floatingscenario.node[117].mobility 	stopTime 	300
scalar Floatingscenario.node[117].mobility 	minSpeed 	3.1538475656582e-14
scalar Floatingscenario.node[117].mobility 	maxSpeed 	22.21992669282
scalar Floatingscenario.node[117].mobility 	totalDistance 	1245.6088467102
scalar Floatingscenario.node[117].mobility 	totalCO2Emission 	394.20424708417
scalar Floatingscenario.node[118].nic.phy80211p 	busyTime 	0.0024820780648709
scalar Floatingscenario.node[118].nic.mac1609_4 	ReceivedUnicastPackets 	0
scalar Floatingscenario.node[118].nic.mac1609_4 	ReceivedBroadcasts 	545
scalar Floatingscenario.node[118].nic.mac1609_4 	SentPackets 	1
scalar Floatingscenario.node[118].nic.mac1609_4 	SNIRLostPackets 	641
scalar Floatingscenario.node[118].nic.mac1609_4 	RXTXLostPackets 	0
scalar Floatingscenario.node[118].nic.mac1609_4 	TotalLostPackets 	641
scalar Floatingscenario.node[118].nic.mac1609_4 	DroppedPacketsInMac 	0
scalar Floatingscenario.node[118].nic.mac1609_4 	TooLittleTime 	0
scalar Floatingscenario.node[118].nic.mac1609_4 	TimesIntoBackoff 	1
scalar Floatingscenario.node[118].nic.mac1609_4 	SlotsBackoff 	1
scalar Floatingscenario.node[118].nic.mac1609_4 	NumInternalContention 	0
scalar Floatingscenario.node[118].nic.mac1609_4 	totalBusyTime 	0.298158659492
scalar Floatingscenario.node[118].mobility 	startTime 	118.1
scalar Floatingscenario.node[118].mobility 	totalTime 	181.8
scalar Floatingscenario.node[118].mobility 	stopTime 	300
scalar Floatingscenario.node[118].mobility 	minSpeed 	1.1256486569958e-13
scalar Floatingscenario.node[118].mobility 	maxSpeed 	22.210603719654
scalar Floatingscenario.node[118].mobility 	totalDistance 	787.16663052579
scalar Floatingscenario.node[118].mobility 	totalCO2Emission 	411.89836197087
scalar Floatingscenario.node[173].nic.phy80211p 	busyTime 	0.0037826055776893
scalar Floatingscenario.node[173].nic.mac1609_4 	ReceivedUnicastPackets 	0
scalar Floatingscenario.node[173].nic.mac1609_4 	ReceivedBroadcasts 	597
scalar Floatingscenario.node[173].nic.mac1609_4 	SentPackets 	1
scalar Floatingscenario.node[173].nic.mac1609_4 	SNIRLostPackets 	648
scalar Floatingscenario.node[173].nic.mac1609_4 	RXTXLostPackets 	0
scalar Floatingscenario.node[173].nic.mac1609_4 	TotalLostPackets 	648
scalar Floatingscenario.node[173].nic.mac1609_4 	DroppedPacketsInMac 	0
scalar Floatingscenario.node[173].nic.mac1609_4 	TooLittleTime 	0
scalar Floatingscenario.node[173].nic.mac1609_4 	TimesIntoBackoff 	1
scalar Floatingscenario.node[173].nic.mac1609_4 	SlotsBackoff 	2
scalar Floatingscenario.node[173].nic.mac1609_4 	NumInternalContention 	0
scalar Floatingscenario.node[173].nic.mac1609_4 	totalBusyTime 	0.310621590662
scalar Floatingscenario.node[173].mobility 	startTime 	174.5
scalar Floatingscenario.node[173].mobility 	totalTime 	125.4
scalar Floatingscenario.node[173].mobility 	stopTime 	300
scalar Floatingscenario.node[173].mobility 	minSpeed 	5.8547538668808e-14
scalar Floatingscenario.node[173].mobility 	maxSpeed 	14.290471795264
scalar Floatingscenario.node[173].mobility 	totalDistance 	464.89751744931
scalar Floatingscenario.node[173].mobility 	totalCO2Emission 	231.40685079093
scalar Floatingscenario.node[119].nic.phy80211p 	busyTime 	0.00086604224569205
scalar Floatingscenario.node[119].nic.mac1609_4 	ReceivedUnicastPackets 	0
scalar Floatingscenario.node[119].nic.mac1609_4 	ReceivedBroadcasts 	241
scalar Floatingscenario.node[119].nic.mac1609_4 	SentPackets 	1
scalar Floatingscenario.node[119].nic.mac1609_4 	SNIRLostPackets 	168
scalar Floatingscenario.node[119].nic.mac1609_4 	RXTXLostPackets 	0
scalar Floatingscenario.node[119].nic.mac1609_4 	TotalLostPackets 	168
scalar Floatingscenario.node[119].nic.mac1609_4 	DroppedPacketsInMac 	0
scalar Floatingscenario.node[119].nic.mac1609_4 	TooLittleTime 	0
scalar Floatingscenario.node[119].nic.mac1609_4 	TimesIntoBackoff 	1
scalar Floatingscenario.node[119].nic.mac1609_4 	SlotsBackoff 	0
scalar Floatingscenario.node[119].nic.mac1609_4 	NumInternalContention 	0
scalar Floatingscenario.node[119].nic.mac1609_4 	totalBusyTime 	0.120294533271
scalar Floatingscenario.node[119].mobility 	startTime 	120.1
scalar Floatingscenario.node[119].mobility 	totalTime 	179.8
scalar Floatingscenario.node[119].mobility 	stopTime 	300
scalar Floatingscenario.node[119].mobility 	minSpeed 	5.8585688493459e-14
scalar Floatingscenario.node[119].mobility 	maxSpeed 	18.563529942518
scalar Floatingscenario.node[119].mobility 	totalDistance 	1617.6521734098
scalar Floatingscenario.node[119].mobility 	totalCO2Emission 	442.13372081238
scalar Floatingscenario.node[120].nic.phy80211p 	busyTime 	0.0011521185019564
scalar Floatingscenario.node[120].nic.mac1609_4 	ReceivedUnicastPackets 	0
scalar Floatingscenario.node[120].nic.mac1609_4 	ReceivedBroadcasts 	398
scalar Floatingscenario.node[120].nic.mac1609_4 	SentPackets 	14
scalar Floatingscenario.node[120].nic.mac1609_4 	SNIRLostPackets 	148
scalar Floatingscenario.node[120].nic.mac1609_4 	RXTXLostPackets 	3
scalar Floatingscenario.node[120].nic.mac1609_4 	TotalLostPackets 	151
scalar Floatingscenario.node[120].nic.mac1609_4 	DroppedPacketsInMac 	0
scalar Floatingscenario.node[120].nic.mac1609_4 	TooLittleTime 	0
scalar Floatingscenario.node[120].nic.mac1609_4 	TimesIntoBackoff 	14
scalar Floatingscenario.node[120].nic.mac1609_4 	SlotsBackoff 	35
scalar Floatingscenario.node[120].nic.mac1609_4 	NumInternalContention 	0
scalar Floatingscenario.node[120].nic.mac1609_4 	totalBusyTime 	0.178541695109
scalar Floatingscenario.node[120].mobility 	startTime 	121.1
scalar Floatingscenario.node[120].mobility 	totalTime 	178.8
scalar Floatingscenario.node[120].mobility 	stopTime 	300
scalar Floatingscenario.node[120].mobility 	minSpeed 	7.9125034195787e-15
scalar Floatingscenario.node[120].mobility 	maxSpeed 	26.374559795247
scalar Floatingscenario.node[120].mobility 	totalDistance 	986.19422857364
scalar Floatingscenario.node[120].mobility 	totalCO2Emission 	422.13426453301
scalar Floatingscenario.node[121].nic.phy80211p 	busyTime 	5.2681281618887e-05
scalar Floatingscenario.node[121].nic.mac1609_4 	ReceivedUnicastPackets 	0
scalar Floatingscenario.node[121].nic.mac1609_4 	ReceivedBroadcasts 	26
scalar Floatingscenario.node[121].nic.mac1609_4 	SentPackets 	0
scalar Floatingscenario.node[121].nic.mac1609_4 	SNIRLostPackets 	2
scalar Floatingscenario.node[121].nic.mac1609_4 	RXTXLostPackets 	0
scalar Floatingscenario.node[121].nic.mac1609_4 	TotalLostPackets 	2
scalar Floatingscenario.node[121].nic.mac1609_4 	DroppedPacketsInMac 	0
scalar Floatingscenario.node[121].nic.mac1609_4 	TooLittleTime 	0
scalar Floatingscenario.node[121].nic.mac1609_4 	TimesIntoBackoff 	0
scalar Floatingscenario.node[121].nic.mac1609_4 	SlotsBackoff 	0
scalar Floatingscenario.node[121].nic.mac1609_4 	NumInternalContention 	0
scalar Floatingscenario.node[121].nic.mac1609_4 	totalBusyTime 	0.00909368507
scalar Floatingscenario.node[121].mobility 	startTime 	122.1
scalar Floatingscenario.node[121].mobility 	totalTime 	177.8
scalar Floatingscenario.node[121].mobility 	stopTime 	300
scalar Floatingscenario.node[121].mobility 	minSpeed 	5.8542272850399e-14
scalar Floatingscenario.node[121].mobility 	maxSpeed 	27.77956410202
scalar Floatingscenario.node[121].mobility 	totalDistance 	636.55593844142
scalar Floatingscenario.node[121].mobility 	totalCO2Emission 	406.22949442094
scalar Floatingscenario.node[122].nic.phy80211p 	busyTime 	0.00037073487846241
scalar Floatingscenario.node[122].nic.mac1609_4 	ReceivedUnicastPackets 	0
scalar Floatingscenario.node[122].nic.mac1609_4 	ReceivedBroadcasts 	126
scalar Floatingscenario.node[122].nic.mac1609_4 	SentPackets 	0
scalar Floatingscenario.node[122].nic.mac1609_4 	SNIRLostPackets 	49
scalar Floatingscenario.node[122].nic.mac1609_4 	RXTXLostPackets 	0
scalar Floatingscenario.node[122].nic.mac1609_4 	TotalLostPackets 	49
scalar Floatingscenario.node[122].nic.mac1609_4 	DroppedPacketsInMac 	0
scalar Floatingscenario.node[122].nic.mac1609_4 	TooLittleTime 	0
scalar Floatingscenario.node[122].nic.mac1609_4 	TimesIntoBackoff 	0
scalar Floatingscenario.node[122].nic.mac1609_4 	SlotsBackoff 	0
scalar Floatingscenario.node[122].nic.mac1609_4 	NumInternalContention 	0
scalar Floatingscenario.node[122].nic.mac1609_4 	totalBusyTime 	0.054507114538
scalar Floatingscenario.node[122].mobility 	startTime 	123.1
scalar Floatingscenario.node[122].mobility 	totalTime 	176.8
scalar Floatingscenario.node[122].mobility 	stopTime 	300
scalar Floatingscenario.node[122].mobility 	minSpeed 	7.4026832590345e-14
scalar Floatingscenario.node[122].mobility 	maxSpeed 	22.219592555317
scalar Floatingscenario.node[122].mobility 	totalDistance 	1963.9660876512
scalar Floatingscenario.node[122].mobility 	totalCO2Emission 	599.57408684843
scalar Floatingscenario.node[123].nic.phy80211p 	busyTime 	0.0012279420125071
scalar Floatingscenario.node[123].nic.mac1609_4 	ReceivedUnicastPackets 	0
scalar Floatingscenario.node[123].nic.mac1609_4 	ReceivedBroadcasts 	405
scalar Floatingscenario.node[123].nic.mac1609_4 	SentPackets 	21
scalar Floatingscenario.node[123].nic.mac1609_4 	SNIRLostPackets 	166
scalar Floatingscenario.node[123].nic.mac1609_4 	RXTXLostPackets 	8
scalar Floatingscenario.node[123].nic.mac1609_4 	TotalLostPackets 	174
scalar Floatingscenario.node[123].nic.mac1609_4 	DroppedPacketsInMac 	0
scalar Floatingscenario.node[123].nic.mac1609_4 	TooLittleTime 	0
scalar Floatingscenario.node[123].nic.mac1609_4 	TimesIntoBackoff 	40
scalar Floatingscenario.node[123].nic.mac1609_4 	SlotsBackoff 	150
scalar Floatingscenario.node[123].nic.mac1609_4 	NumInternalContention 	0
scalar Floatingscenario.node[123].nic.mac1609_4 	totalBusyTime 	0.187152916612
scalar Floatingscenario.node[123].mobility 	startTime 	124.1
scalar Floatingscenario.node[123].mobility 	totalTime 	175.8
scalar Floatingscenario.node[123].mobility 	stopTime 	300
scalar Floatingscenario.node[123].mobility 	minSpeed 	1.4689966778914e-14
scalar Floatingscenario.node[123].mobility 	maxSpeed 	27.779291928164
scalar Floatingscenario.node[123].mobility 	totalDistance 	1540.0945776636
scalar Floatingscenario.node[123].mobility 	totalCO2Emission 	552.342734382
scalar Floatingscenario.node[124].nic.phy80211p 	busyTime 	0.0018065580331618
scalar Floatingscenario.node[124].nic.mac1609_4 	ReceivedUnicastPackets 	0
scalar Floatingscenario.node[124].nic.mac1609_4 	ReceivedBroadcasts 	351
scalar Floatingscenario.node[124].nic.mac1609_4 	SentPackets 	1
scalar Floatingscenario.node[124].nic.mac1609_4 	SNIRLostPackets 	480
scalar Floatingscenario.node[124].nic.mac1609_4 	RXTXLostPackets 	0
scalar Floatingscenario.node[124].nic.mac1609_4 	TotalLostPackets 	480
scalar Floatingscenario.node[124].nic.mac1609_4 	DroppedPacketsInMac 	0
scalar Floatingscenario.node[124].nic.mac1609_4 	TooLittleTime 	0
scalar Floatingscenario.node[124].nic.mac1609_4 	TimesIntoBackoff 	1
scalar Floatingscenario.node[124].nic.mac1609_4 	SlotsBackoff 	2
scalar Floatingscenario.node[124].nic.mac1609_4 	NumInternalContention 	0
scalar Floatingscenario.node[124].nic.mac1609_4 	totalBusyTime 	0.199093097832
scalar Floatingscenario.node[124].mobility 	startTime 	125.1
scalar Floatingscenario.node[124].mobility 	totalTime 	174.8
scalar Floatingscenario.node[124].mobility 	stopTime 	300
scalar Floatingscenario.node[124].mobility 	minSpeed 	5.8570209088355e-14
scalar Floatingscenario.node[124].mobility 	maxSpeed 	22.219380862128
scalar Floatingscenario.node[124].mobility 	totalDistance 	1384.237958686
scalar Floatingscenario.node[124].mobility 	totalCO2Emission 	398.82605696439
scalar Floatingscenario.node[125].nic.phy80211p 	busyTime 	2.1414606095457e-05
scalar Floatingscenario.node[125].nic.mac1609_4 	ReceivedUnicastPackets 	0
scalar Floatingscenario.node[125].nic.mac1609_4 	ReceivedBroadcasts 	12
scalar Floatingscenario.node[125].nic.mac1609_4 	SentPackets 	1
scalar Floatingscenario.node[125].nic.mac1609_4 	SNIRLostPackets 	0
scalar Floatingscenario.node[125].nic.mac1609_4 	RXTXLostPackets 	0
scalar Floatingscenario.node[125].nic.mac1609_4 	TotalLostPackets 	0
scalar Floatingscenario.node[125].nic.mac1609_4 	DroppedPacketsInMac 	0
scalar Floatingscenario.node[125].nic.mac1609_4 	TooLittleTime 	0
scalar Floatingscenario.node[125].nic.mac1609_4 	TimesIntoBackoff 	1
scalar Floatingscenario.node[125].nic.mac1609_4 	SlotsBackoff 	2
scalar Floatingscenario.node[125].nic.mac1609_4 	NumInternalContention 	0
scalar Floatingscenario.node[125].nic.mac1609_4 	totalBusyTime 	0.003982
scalar Floatingscenario.node[125].mobility 	startTime 	126.1
scalar Floatingscenario.node[125].mobility 	totalTime 	173.8
scalar Floatingscenario.node[125].mobility 	stopTime 	300
scalar Floatingscenario.node[125].mobility 	minSpeed 	5.8545666759693e-14
scalar Floatingscenario.node[125].mobility 	maxSpeed 	24.184738361986
scalar Floatingscenario.node[125].mobility 	totalDistance 	717.84819410049
scalar Floatingscenario.node[125].mobility 	totalCO2Emission 	420.31269930355
scalar Floatingscenario.node[126].nic.phy80211p 	busyTime 	0.0013872990167727
scalar Floatingscenario.node[126].nic.mac1609_4 	ReceivedUnicastPackets 	0
scalar Floatingscenario.node[126].nic.mac1609_4 	ReceivedBroadcasts 	270
scalar Floatingscenario.node[126].nic.mac1609_4 	SentPackets 	8
scalar Floatingscenario.node[126].nic.mac1609_4 	SNIRLostPackets 	362
scalar Floatingscenario.node[126].nic.mac1609_4 	RXTXLostPackets 	2
scalar Floatingscenario.node[126].nic.mac1609_4 	TotalLostPackets 	364
scalar Floatingscenario.node[126].nic.mac1609_4 	DroppedPacketsInMac 	0
scalar Floatingscenario.node[126].nic.mac1609_4 	TooLittleTime 	0
scalar Floatingscenario.node[126].nic.mac1609_4 	TimesIntoBackoff 	13
scalar Floatingscenario.node[126].nic.mac1609_4 	SlotsBackoff 	48
scalar Floatingscenario.node[126].nic.mac1609_4 	NumInternalContention 	0
scalar Floatingscenario.node[126].nic.mac1609_4 	totalBusyTime 	0.152587373743
scalar Floatingscenario.node[126].mobility 	startTime 	127.1
scalar Floatingscenario.node[126].mobility 	totalTime 	172.8
scalar Floatingscenario.node[126].mobility 	stopTime 	300
scalar Floatingscenario.node[126].mobility 	minSpeed 	3.7780330382425e-12
scalar Floatingscenario.node[126].mobility 	maxSpeed 	22.219735564366
scalar Floatingscenario.node[126].mobility 	totalDistance 	1468.8510620173
scalar Floatingscenario.node[126].mobility 	totalCO2Emission 	462.61208936411
scalar Floatingscenario.node[127].nic.phy80211p 	busyTime 	0.0024816288539849
scalar Floatingscenario.node[127].nic.mac1609_4 	ReceivedUnicastPackets 	0
scalar Floatingscenario.node[127].nic.mac1609_4 	ReceivedBroadcasts 	509
scalar Floatingscenario.node[127].nic.mac1609_4 	SentPackets 	1
scalar Floatingscenario.node[127].nic.mac1609_4 	SNIRLostPackets 	611
scalar Floatingscenario.node[127].nic.mac1609_4 	RXTXLostPackets 	0
scalar Floatingscenario.node[127].nic.mac1609_4 	TotalLostPackets 	611
scalar Floatingscenario.node[127].nic.mac1609_4 	DroppedPacketsInMac 	0
scalar Floatingscenario.node[127].nic.mac1609_4 	TooLittleTime 	0
scalar Floatingscenario.node[127].nic.mac1609_4 	TimesIntoBackoff 	1
scalar Floatingscenario.node[127].nic.mac1609_4 	SlotsBackoff 	2
scalar Floatingscenario.node[127].nic.mac1609_4 	NumInternalContention 	0
scalar Floatingscenario.node[127].nic.mac1609_4 	totalBusyTime 	0.280519024165
scalar Floatingscenario.node[127].mobility 	startTime 	128.1
scalar Floatingscenario.node[127].mobility 	totalTime 	171.8
scalar Floatingscenario.node[127].mobility 	stopTime 	300
scalar Floatingscenario.node[127].mobility 	minSpeed 	4.1511079700998e-11
scalar Floatingscenario.node[127].mobility 	maxSpeed 	22.2153304488
scalar Floatingscenario.node[127].mobility 	totalDistance 	1114.4623585108
scalar Floatingscenario.node[127].mobility 	totalCO2Emission 	429.6385830794
scalar Floatingscenario.node[128].nic.phy80211p 	busyTime 	0.0022663662960796
scalar Floatingscenario.node[128].nic.mac1609_4 	ReceivedUnicastPackets 	0
scalar Floatingscenario.node[128].nic.mac1609_4 	ReceivedBroadcasts 	414
scalar Floatingscenario.node[128].nic.mac1609_4 	SentPackets 	0
scalar Floatingscenario.node[128].nic.mac1609_4 	SNIRLostPackets 	604
scalar Floatingscenario.node[128].nic.mac1609_4 	RXTXLostPackets 	0
scalar Floatingscenario.node[128].nic.mac1609_4 	TotalLostPackets 	604
scalar Floatingscenario.node[128].nic.mac1609_4 	DroppedPacketsInMac 	0
scalar Floatingscenario.node[128].nic.mac1609_4 	TooLittleTime 	0
scalar Floatingscenario.node[128].nic.mac1609_4 	TimesIntoBackoff 	0
scalar Floatingscenario.node[128].nic.mac1609_4 	SlotsBackoff 	0
scalar Floatingscenario.node[128].nic.mac1609_4 	NumInternalContention 	0
scalar Floatingscenario.node[128].nic.mac1609_4 	totalBusyTime 	0.243444433794
scalar Floatingscenario.node[128].mobility 	startTime 	129.1
scalar Floatingscenario.node[128].mobility 	totalTime 	170.8
scalar Floatingscenario.node[128].mobility 	stopTime 	300
scalar Floatingscenario.node[128].mobility 	minSpeed 	1.1255976377199e-13
scalar Floatingscenario.node[128].mobility 	maxSpeed 	22.219938261032
scalar Floatingscenario.node[128].mobility 	totalDistance 	1500.7574781652
scalar Floatingscenario.node[128].mobility 	totalCO2Emission 	437.43131458787
scalar Floatingscenario.node[129].nic.phy80211p 	busyTime 	0.0026037551500883
scalar Floatingscenario.node[129].nic.mac1609_4 	ReceivedUnicastPackets 	0
scalar Floatingscenario.node[129].nic.mac1609_4 	ReceivedBroadcasts 	523
scalar Floatingscenario.node[129].nic.mac1609_4 	SentPackets 	1
scalar Floatingscenario.node[129].nic.mac1609_4 	SNIRLostPackets 	639
scalar Floatingscenario.node[129].nic.mac1609_4 	RXTXLostPackets 	0
scalar Floatingscenario.node[129].nic.mac1609_4 	TotalLostPackets 	639
scalar Floatingscenario.node[129].nic.mac1609_4 	DroppedPacketsInMac 	0
scalar Floatingscenario.node[129].nic.mac1609_4 	TooLittleTime 	0
scalar Floatingscenario.node[129].nic.mac1609_4 	TimesIntoBackoff 	1
scalar Floatingscenario.node[129].nic.mac1609_4 	SlotsBackoff 	2
scalar Floatingscenario.node[129].nic.mac1609_4 	NumInternalContention 	0
scalar Floatingscenario.node[129].nic.mac1609_4 	totalBusyTime 	0.289814318074
scalar Floatingscenario.node[129].mobility 	startTime 	130.1
scalar Floatingscenario.node[129].mobility 	totalTime 	169.8
scalar Floatingscenario.node[129].mobility 	stopTime 	300
scalar Floatingscenario.node[129].mobility 	minSpeed 	5.8545734061819e-14
scalar Floatingscenario.node[129].mobility 	maxSpeed 	17.007864886997
scalar Floatingscenario.node[129].mobility 	totalDistance 	852.31100695796
scalar Floatingscenario.node[129].mobility 	totalCO2Emission 	380.12025897473
scalar Floatingscenario.node[130].nic.phy80211p 	busyTime 	0.0010721669626998
scalar Floatingscenario.node[130].nic.mac1609_4 	ReceivedUnicastPackets 	0
scalar Floatingscenario.node[130].nic.mac1609_4 	ReceivedBroadcasts 	331
scalar Floatingscenario.node[130].nic.mac1609_4 	SentPackets 	2
scalar Floatingscenario.node[130].nic.mac1609_4 	SNIRLostPackets 	150
scalar Floatingscenario.node[130].nic.mac1609_4 	RXTXLostPackets 	1
scalar Floatingscenario.node[130].nic.mac1609_4 	TotalLostPackets 	151
scalar Floatingscenario.node[130].nic.mac1609_4 	DroppedPacketsInMac 	0
scalar Floatingscenario.node[130].nic.mac1609_4 	TooLittleTime 	0
scalar Floatingscenario.node[130].nic.mac1609_4 	TimesIntoBackoff 	3
scalar Floatingscenario.node[130].nic.mac1609_4 	SlotsBackoff 	8
scalar Floatingscenario.node[130].nic.mac1609_4 	NumInternalContention 	0
scalar Floatingscenario.node[130].nic.mac1609_4 	totalBusyTime 	0.149642435819
scalar Floatingscenario.node[130].mobility 	startTime 	131.1
scalar Floatingscenario.node[130].mobility 	totalTime 	168.8
scalar Floatingscenario.node[130].mobility 	stopTime 	300
scalar Floatingscenario.node[130].mobility 	minSpeed 	3.6943836054083e-15
scalar Floatingscenario.node[130].mobility 	maxSpeed 	14.434268231895
scalar Floatingscenario.node[130].mobility 	totalDistance 	524.62977384343
scalar Floatingscenario.node[130].mobility 	totalCO2Emission 	282.03680717879
scalar Floatingscenario.node[131].nic.phy80211p 	busyTime 	0.00051827278141751
scalar Floatingscenario.node[131].nic.mac1609_4 	ReceivedUnicastPackets 	0
scalar Floatingscenario.node[131].nic.mac1609_4 	ReceivedBroadcasts 	197
scalar Floatingscenario.node[131].nic.mac1609_4 	SentPackets 	1
scalar Floatingscenario.node[131].nic.mac1609_4 	SNIRLostPackets 	37
scalar Floatingscenario.node[131].nic.mac1609_4 	RXTXLostPackets 	0
scalar Floatingscenario.node[131].nic.mac1609_4 	TotalLostPackets 	37
scalar Floatingscenario.node[131].nic.mac1609_4 	DroppedPacketsInMac 	0
scalar Floatingscenario.node[131].nic.mac1609_4 	TooLittleTime 	0
scalar Floatingscenario.node[131].nic.mac1609_4 	TimesIntoBackoff 	1
scalar Floatingscenario.node[131].nic.mac1609_4 	SlotsBackoff 	1
scalar Floatingscenario.node[131].nic.mac1609_4 	NumInternalContention 	0
scalar Floatingscenario.node[131].nic.mac1609_4 	totalBusyTime 	0.078620774835
scalar Floatingscenario.node[131].mobility 	startTime 	132.1
scalar Floatingscenario.node[131].mobility 	totalTime 	167.8
scalar Floatingscenario.node[131].mobility 	stopTime 	300
scalar Floatingscenario.node[131].mobility 	minSpeed 	3.6924477857517e-15
scalar Floatingscenario.node[131].mobility 	maxSpeed 	27.779976833218
scalar Floatingscenario.node[131].mobility 	totalDistance 	1077.2525966807
scalar Floatingscenario.node[131].mobility 	totalCO2Emission 	412.94576923605
scalar Floatingscenario.node[132].nic.phy80211p 	busyTime 	0.0026128879568605
scalar Floatingscenario.node[132].nic.mac1609_4 	ReceivedUnicastPackets 	0
scalar Floatingscenario.node[132].nic.mac1609_4 	ReceivedBroadcasts 	592
scalar Floatingscenario.node[132].nic.mac1609_4 	SentPackets 	9
scalar Floatingscenario.node[132].nic.mac1609_4 	SNIRLostPackets 	555
scalar Floatingscenario.node[132].nic.mac1609_4 	RXTXLostPackets 	8
scalar Floatingscenario.node[132].nic.mac1609_4 	TotalLostPackets 	563
scalar Floatingscenario.node[132].nic.mac1609_4 	DroppedPacketsInMac 	0
scalar Floatingscenario.node[132].nic.mac1609_4 	TooLittleTime 	0
scalar Floatingscenario.node[132].nic.mac1609_4 	TimesIntoBackoff 	14
scalar Floatingscenario.node[132].nic.mac1609_4 	SlotsBackoff 	54
scalar Floatingscenario.node[132].nic.mac1609_4 	NumInternalContention 	0
scalar Floatingscenario.node[132].nic.mac1609_4 	totalBusyTime 	0.30985809577
scalar Floatingscenario.node[132].mobility 	startTime 	133.1
scalar Floatingscenario.node[132].mobility 	totalTime 	166.8
scalar Floatingscenario.node[132].mobility 	stopTime 	300
scalar Floatingscenario.node[132].mobility 	minSpeed 	1.1262837969263e-13
scalar Floatingscenario.node[132].mobility 	maxSpeed 	27.762865711625
scalar Floatingscenario.node[132].mobility 	totalDistance 	1287.3645363912
scalar Floatingscenario.node[132].mobility 	totalCO2Emission 	523.46112866101
scalar Floatingscenario.node[133].nic.phy80211p 	busyTime 	1.0837854128993e-05
scalar Floatingscenario.node[133].nic.mac1609_4 	ReceivedUnicastPackets 	0
scalar Floatingscenario.node[133].nic.mac1609_4 	ReceivedBroadcasts 	6
scalar Floatingscenario.node[133].nic.mac1609_4 	SentPackets 	4
scalar Floatingscenario.node[133].nic.mac1609_4 	SNIRLostPackets 	0
scalar Floatingscenario.node[133].nic.mac1609_4 	RXTXLostPackets 	0
scalar Floatingscenario.node[133].nic.mac1609_4 	TotalLostPackets 	0
scalar Floatingscenario.node[133].nic.mac1609_4 	DroppedPacketsInMac 	0
scalar Floatingscenario.node[133].nic.mac1609_4 	TooLittleTime 	0
scalar Floatingscenario.node[133].nic.mac1609_4 	TimesIntoBackoff 	4
scalar Floatingscenario.node[133].nic.mac1609_4 	SlotsBackoff 	19
scalar Floatingscenario.node[133].nic.mac1609_4 	NumInternalContention 	0
scalar Floatingscenario.node[133].nic.mac1609_4 	totalBusyTime 	0.003214
scalar Floatingscenario.node[133].mobility 	startTime 	134.1
scalar Floatingscenario.node[133].mobility 	totalTime 	165.8
scalar Floatingscenario.node[133].mobility 	stopTime 	300
scalar Floatingscenario.node[133].mobility 	minSpeed 	0
scalar Floatingscenario.node[133].mobility 	maxSpeed 	18.485403241075
scalar Floatingscenario.node[133].mobility 	totalDistance 	599.42567045214
scalar Floatingscenario.node[133].mobility 	totalCO2Emission 	323.42846701942
scalar Floatingscenario.node[134].nic.phy80211p 	busyTime 	0.00087947240751971
scalar Floatingscenario.node[134].nic.mac1609_4 	ReceivedUnicastPackets 	0
scalar Floatingscenario.node[134].nic.mac1609_4 	ReceivedBroadcasts 	283
scalar Floatingscenario.node[134].nic.mac1609_4 	SentPackets 	11
scalar Floatingscenario.node[134].nic.mac1609_4 	SNIRLostPackets 	102
scalar Floatingscenario.node[134].nic.mac1609_4 	RXTXLostPackets 	3
scalar Floatingscenario.node[134].nic.mac1609_4 	TotalLostPackets 	105
scalar Floatingscenario.node[134].nic.mac1609_4 	DroppedPacketsInMac 	0
scalar Floatingscenario.node[134].nic.mac1609_4 	TooLittleTime 	0
scalar Floatingscenario.node[134].nic.mac1609_4 	TimesIntoBackoff 	20
scalar Floatingscenario.node[134].nic.mac1609_4 	SlotsBackoff 	60
scalar Floatingscenario.node[134].nic.mac1609_4 	NumInternalContention 	0
scalar Floatingscenario.node[134].nic.mac1609_4 	totalBusyTime 	0.128953265678
scalar Floatingscenario.node[134].mobility 	startTime 	135.1
scalar Floatingscenario.node[134].mobility 	totalTime 	164.8
scalar Floatingscenario.node[134].mobility 	stopTime 	300
scalar Floatingscenario.node[134].mobility 	minSpeed 	5.3649746855562e-08
scalar Floatingscenario.node[134].mobility 	maxSpeed 	27.779544839384
scalar Floatingscenario.node[134].mobility 	totalDistance 	1307.5332459767
scalar Floatingscenario.node[134].mobility 	totalCO2Emission 	440.1672242671
scalar Floatingscenario.node[135].nic.phy80211p 	busyTime 	0.00089030506406345
scalar Floatingscenario.node[135].nic.mac1609_4 	ReceivedUnicastPackets 	0
scalar Floatingscenario.node[135].nic.mac1609_4 	ReceivedBroadcasts 	267
scalar Floatingscenario.node[135].nic.mac1609_4 	SentPackets 	0
scalar Floatingscenario.node[135].nic.mac1609_4 	SNIRLostPackets 	118
scalar Floatingscenario.node[135].nic.mac1609_4 	RXTXLostPackets 	0
scalar Floatingscenario.node[135].nic.mac1609_4 	TotalLostPackets 	118
scalar Floatingscenario.node[135].nic.mac1609_4 	DroppedPacketsInMac 	0
scalar Floatingscenario.node[135].nic.mac1609_4 	TooLittleTime 	0
scalar Floatingscenario.node[135].nic.mac1609_4 	TimesIntoBackoff 	0
scalar Floatingscenario.node[135].nic.mac1609_4 	SlotsBackoff 	0
scalar Floatingscenario.node[135].nic.mac1609_4 	NumInternalContention 	0
scalar Floatingscenario.node[135].nic.mac1609_4 	totalBusyTime 	0.121367969582
scalar Floatingscenario.node[135].mobility 	startTime 	136.1
scalar Floatingscenario.node[135].mobility 	totalTime 	163.8
scalar Floatingscenario.node[135].mobility 	stopTime 	300
scalar Floatingscenario.node[135].mobility 	minSpeed 	1.1486639397983e-12
scalar Floatingscenario.node[135].mobility 	maxSpeed 	22.218769903635
scalar Floatingscenario.node[135].mobility 	totalDistance 	1642.0482813314
scalar Floatingscenario.node[135].mobility 	totalCO2Emission 	445.68904228094
scalar Floatingscenario.node[136].nic.phy80211p 	busyTime 	0.0015543953345611
scalar Floatingscenario.node[136].nic.mac1609_4 	ReceivedUnicastPackets 	0
scalar Floatingscenario.node[136].nic.mac1609_4 	ReceivedBroadcasts 	283
scalar Floatingscenario.node[136].nic.mac1609_4 	SentPackets 	1
scalar Floatingscenario.node[136].nic.mac1609_4 	SNIRLostPackets 	384
[...]
scalar Floatingscenario.manager.anchorZone[277] 	xpos 	4200
scalar Floatingscenario.manager.anchorZone[277] 	ypos 	800
scalar Floatingscenario.manager.anchorZone[277] 	numNodes 	0
scalar Floatingscenario.manager.anchorZone[278] 	criticality 	0
scalar Floatingscenario.manager.anchorZone[278] 	criticality2 	0
scalar Floatingscenario.manager.anchorZone[278] 	criticality3 	0
scalar Floatingscenario.manager.anchorZone[278] 	removed 	1
scalar Floatingscenario.manager.anchorZone[278] 	infected 	1
scalar Floatingscenario.manager.anchorZone[278] 	transit 	2
scalar Floatingscenario.manager.anchorZone[278] 	contactsPerSecond 	0
scalar Floatingscenario.manager.anchorZone[278] 	timeAverage 	11
scalar Floatingscenario.manager.anchorZone[278] 	avgContacts 	0
scalar Floatingscenario.manager.anchorZone[278] 	contactTime 	0
scalar Floatingscenario.manager.anchorZone[278] 	contacts 	0
scalar Floatingscenario.manager.anchorZone[278] 	replicas 	0
scalar Floatingscenario.manager.anchorZone[278] 	xpos 	4200
scalar Floatingscenario.manager.anchorZone[278] 	ypos 	1000
scalar Floatingscenario.manager.anchorZone[278] 	numNodes 	0
scalar Floatingscenario.manager.anchorZone[279] 	criticality 	0
scalar Floatingscenario.manager.anchorZone[279] 	criticality2 	0
scalar Floatingscenario.manager.anchorZone[279] 	criticality3 	0
scalar Floatingscenario.manager.anchorZone[279] 	removed 	1
scalar Floatingscenario.manager.anchorZone[279] 	infected 	1
scalar Floatingscenario.manager.anchorZone[279] 	transit 	16
scalar Floatingscenario.manager.anchorZone[279] 	contactsPerSecond 	0
scalar Floatingscenario.manager.anchorZone[279] 	timeAverage 	17.25
scalar Floatingscenario.manager.anchorZone[279] 	avgContacts 	0
scalar Floatingscenario.manager.anchorZone[279] 	contactTime 	0
scalar Floatingscenario.manager.anchorZone[279] 	contacts 	0
scalar Floatingscenario.manager.anchorZone[279] 	replicas 	0
scalar Floatingscenario.manager.anchorZone[279] 	xpos 	4200
scalar Floatingscenario.manager.anchorZone[279] 	ypos 	1200
scalar Floatingscenario.manager.anchorZone[279] 	numNodes 	0
scalar Floatingscenario.manager.anchorZone[280] 	criticality 	1
scalar Floatingscenario.manager.anchorZone[280] 	criticality2 	0.81016022761306
scalar Floatingscenario.manager.anchorZone[280] 	criticality3 	0.28355607966457
scalar Floatingscenario.manager.anchorZone[280] 	removed 	1
scalar Floatingscenario.manager.anchorZone[280] 	infected 	1
scalar Floatingscenario.manager.anchorZone[280] 	transit 	20
scalar Floatingscenario.manager.anchorZone[280] 	contactsPerSecond 	0.00071129080563043
scalar Floatingscenario.manager.anchorZone[280] 	timeAverage 	56.95
scalar Floatingscenario.manager.anchorZone[280] 	avgContacts 	0.05
scalar Floatingscenario.manager.anchorZone[280] 	contactTime 	0
scalar Floatingscenario.manager.anchorZone[280] 	contacts 	1
scalar Floatingscenario.manager.anchorZone[280] 	replicas 	0
scalar Floatingscenario.manager.anchorZone[280] 	xpos 	4200
scalar Floatingscenario.manager.anchorZone[280] 	ypos 	1400
scalar Floatingscenario.manager.anchorZone[280] 	numNodes 	2
scalar Floatingscenario.manager.anchorZone[281] 	criticality 	0
scalar Floatingscenario.manager.anchorZone[281] 	criticality2 	0
scalar Floatingscenario.manager.anchorZone[281] 	criticality3 	0
scalar Floatingscenario.manager.anchorZone[281] 	removed 	1
scalar Floatingscenario.manager.anchorZone[281] 	infected 	1
scalar Floatingscenario.manager.anchorZone[281] 	transit 	8
scalar Floatingscenario.manager.anchorZone[281] 	contactsPerSecond 	0
scalar Floatingscenario.manager.anchorZone[281] 	timeAverage 	17.25
scalar Floatingscenario.manager.anchorZone[281] 	avgContacts 	0
scalar Floatingscenario.manager.anchorZone[281] 	contactTime 	0
scalar Floatingscenario.manager.anchorZone[281] 	contacts 	0
scalar Floatingscenario.manager.anchorZone[281] 	replicas 	0
scalar Floatingscenario.manager.anchorZone[281] 	xpos 	4200
scalar Floatingscenario.manager.anchorZone[281] 	ypos 	1600
scalar Floatingscenario.manager.anchorZone[281] 	numNodes 	0
scalar Floatingscenario.manager.anchorZone[282] 	criticality 	0
scalar Floatingscenario.manager.anchorZone[282] 	criticality2 	0
scalar Floatingscenario.manager.anchorZone[282] 	criticality3 	0
scalar Floatingscenario.manager.anchorZone[282] 	removed 	1
scalar Floatingscenario.manager.anchorZone[282] 	infected 	1
scalar Floatingscenario.manager.anchorZone[282] 	transit 	1
scalar Floatingscenario.manager.anchorZone[282] 	contactsPerSecond 	0
scalar Floatingscenario.manager.anchorZone[282] 	timeAverage 	1
scalar Floatingscenario.manager.anchorZone[282] 	avgContacts 	0
scalar Floatingscenario.manager.anchorZone[282] 	contactTime 	0
scalar Floatingscenario.manager.anchorZone[282] 	contacts 	0
scalar Floatingscenario.manager.anchorZone[282] 	replicas 	0
scalar Floatingscenario.manager.anchorZone[282] 	xpos 	4200
scalar Floatingscenario.manager.anchorZone[282] 	ypos 	1800
scalar Floatingscenario.manager.anchorZone[282] 	numNodes 	0
scalar Floatingscenario.manager.anchorZone[283] 	criticality 	0
scalar Floatingscenario.manager.anchorZone[283] 	criticality2 	0
scalar Floatingscenario.manager.anchorZone[283] 	criticality3 	0
scalar Floatingscenario.manager.anchorZone[283] 	removed 	0
scalar Floatingscenario.manager.anchorZone[283] 	infected 	0
scalar Floatingscenario.manager.anchorZone[283] 	transit 	0
scalar Floatingscenario.manager.anchorZone[283] 	contactsPerSecond 	0
scalar Floatingscenario.manager.anchorZone[283] 	timeAverage 	0
scalar Floatingscenario.manager.anchorZone[283] 	avgContacts 	0
scalar Floatingscenario.manager.anchorZone[283] 	contactTime 	0
scalar Floatingscenario.manager.anchorZone[283] 	contacts 	0
scalar Floatingscenario.manager.anchorZone[283] 	replicas 	0
scalar Floatingscenario.manager.anchorZone[283] 	xpos 	4200
scalar Floatingscenario.manager.anchorZone[283] 	ypos 	2000
scalar Floatingscenario.manager.anchorZone[283] 	numNodes 	0
scalar Floatingscenario.manager.anchorZone[284] 	criticality 	0
scalar Floatingscenario.manager.anchorZone[284] 	criticality2 	0
scalar Floatingscenario.manager.anchorZone[284] 	criticality3 	0
scalar Floatingscenario.manager.anchorZone[284] 	removed 	0
scalar Floatingscenario.manager.anchorZone[284] 	infected 	0
scalar Floatingscenario.manager.anchorZone[284] 	transit 	0
scalar Floatingscenario.manager.anchorZone[284] 	contactsPerSecond 	0
scalar Floatingscenario.manager.anchorZone[284] 	timeAverage 	0
scalar Floatingscenario.manager.anchorZone[284] 	avgContacts 	0
scalar Floatingscenario.manager.anchorZone[284] 	contactTime 	0
scalar Floatingscenario.manager.anchorZone[284] 	contacts 	0
scalar Floatingscenario.manager.anchorZone[284] 	replicas 	0
scalar Floatingscenario.manager.anchorZone[284] 	xpos 	4200
scalar Floatingscenario.manager.anchorZone[284] 	ypos 	2200
scalar Floatingscenario.manager.anchorZone[284] 	numNodes 	0
scalar Floatingscenario.manager.anchorZone[285] 	criticality 	0
scalar Floatingscenario.manager.anchorZone[285] 	criticality2 	0
scalar Floatingscenario.manager.anchorZone[285] 	criticality3 	0
scalar Floatingscenario.manager.anchorZone[285] 	removed 	0
scalar Floatingscenario.manager.anchorZone[285] 	infected 	0
scalar Floatingscenario.manager.anchorZone[285] 	transit 	0
scalar Floatingscenario.manager.anchorZone[285] 	contactsPerSecond 	0
scalar Floatingscenario.manager.anchorZone[285] 	timeAverage 	0
scalar Floatingscenario.manager.anchorZone[285] 	avgContacts 	0
scalar Floatingscenario.manager.anchorZone[285] 	contactTime 	0
scalar Floatingscenario.manager.anchorZone[285] 	contacts 	0
scalar Floatingscenario.manager.anchorZone[285] 	replicas 	0
scalar Floatingscenario.manager.anchorZone[285] 	xpos 	4200
scalar Floatingscenario.manager.anchorZone[285] 	ypos 	2400
scalar Floatingscenario.manager.anchorZone[285] 	numNodes 	0
scalar Floatingscenario.manager.anchorZone[286] 	criticality 	0
scalar Floatingscenario.manager.anchorZone[286] 	criticality2 	0
scalar Floatingscenario.manager.anchorZone[286] 	criticality3 	0
scalar Floatingscenario.manager.anchorZone[286] 	removed 	0
scalar Floatingscenario.manager.anchorZone[286] 	infected 	0
scalar Floatingscenario.manager.anchorZone[286] 	transit 	0
scalar Floatingscenario.manager.anchorZone[286] 	contactsPerSecond 	0
scalar Floatingscenario.manager.anchorZone[286] 	timeAverage 	0
scalar Floatingscenario.manager.anchorZone[286] 	avgContacts 	0
scalar Floatingscenario.manager.anchorZone[286] 	contactTime 	0
scalar Floatingscenario.manager.anchorZone[286] 	contacts 	0
scalar Floatingscenario.manager.anchorZone[286] 	replicas 	0
scalar Floatingscenario.manager.anchorZone[286] 	xpos 	4400
scalar Floatingscenario.manager.anchorZone[286] 	ypos 	0
scalar Floatingscenario.manager.anchorZone[286] 	numNodes 	0
scalar Floatingscenario.manager.anchorZone[287] 	criticality 	0
scalar Floatingscenario.manager.anchorZone[287] 	criticality2 	0
scalar Floatingscenario.manager.anchorZone[287] 	criticality3 	0
scalar Floatingscenario.manager.anchorZone[287] 	removed 	0
scalar Floatingscenario.manager.anchorZone[287] 	infected 	0
scalar Floatingscenario.manager.anchorZone[287] 	transit 	0
scalar Floatingscenario.manager.anchorZone[287] 	contactsPerSecond 	0
scalar Floatingscenario.manager.anchorZone[287] 	timeAverage 	0
scalar Floatingscenario.manager.anchorZone[287] 	avgContacts 	0
scalar Floatingscenario.manager.anchorZone[287] 	contactTime 	0
scalar Floatingscenario.manager.anchorZone[287] 	contacts 	0
scalar Floatingscenario.manager.anchorZone[287] 	replicas 	0
scalar Floatingscenario.manager.anchorZone[287] 	xpos 	4400
scalar Floatingscenario.manager.anchorZone[287] 	ypos 	200
scalar Floatingscenario.manager.anchorZone[287] 	numNodes 	0
scalar Floatingscenario.manager.anchorZone[288] 	criticality 	0
scalar Floatingscenario.manager.anchorZone[288] 	criticality2 	0
scalar Floatingscenario.manager.anchorZone[288] 	criticality3 	0
scalar Floatingscenario.manager.anchorZone[288] 	removed 	0
scalar Floatingscenario.manager.anchorZone[288] 	infected 	0
scalar Floatingscenario.manager.anchorZone[288] 	transit 	0
scalar Floatingscenario.manager.anchorZone[288] 	contactsPerSecond 	0
scalar Floatingscenario.manager.anchorZone[288] 	timeAverage 	0
scalar Floatingscenario.manager.anchorZone[288] 	avgContacts 	0
scalar Floatingscenario.manager.anchorZone[288] 	contactTime 	0
scalar Floatingscenario.manager.anchorZone[288] 	contacts 	0
scalar Floatingscenario.manager.anchorZone[288] 	replicas 	0
scalar Floatingscenario.manager.anchorZone[288] 	xpos 	4400
scalar Floatingscenario.manager.anchorZone[288] 	ypos 	400
scalar Floatingscenario.manager.anchorZone[288] 	numNodes 	0
scalar Floatingscenario.manager.anchorZone[289] 	criticality 	0
scalar Floatingscenario.manager.anchorZone[289] 	criticality2 	0
scalar Floatingscenario.manager.anchorZone[289] 	criticality3 	0
scalar Floatingscenario.manager.anchorZone[289] 	removed 	0
scalar Floatingscenario.manager.anchorZone[289] 	infected 	0
scalar Floatingscenario.manager.anchorZone[289] 	transit 	0
scalar Floatingscenario.manager.anchorZone[289] 	contactsPerSecond 	0
scalar Floatingscenario.manager.anchorZone[289] 	timeAverage 	0
scalar Floatingscenario.manager.anchorZone[289] 	avgContacts 	0
scalar Floatingscenario.manager.anchorZone[289] 	contactTime 	0
scalar Floatingscenario.manager.anchorZone[289] 	contacts 	0
scalar Floatingscenario.manager.anchorZone[289] 	replicas 	0
scalar Floatingscenario.manager.anchorZone[289] 	xpos 	4400
scalar Floatingscenario.manager.anchorZone[289] 	ypos 	600
scalar Floatingscenario.manager.anchorZone[289] 	numNodes 	0
scalar Floatingscenario.manager.anchorZone[290] 	criticality 	0
scalar Floatingscenario.manager.anchorZone[290] 	criticality2 	0
scalar Floatingscenario.manager.anchorZone[290] 	criticality3 	0
scalar Floatingscenario.manager.anchorZone[290] 	removed 	0
scalar Floatingscenario.manager.anchorZone[290] 	infected 	0
scalar Floatingscenario.manager.anchorZone[290] 	transit 	0
scalar Floatingscenario.manager.anchorZone[290] 	contactsPerSecond 	0
scalar Floatingscenario.manager.anchorZone[290] 	timeAverage 	0
scalar Floatingscenario.manager.anchorZone[290] 	avgContacts 	0
scalar Floatingscenario.manager.anchorZone[290] 	contactTime 	0
scalar Floatingscenario.manager.anchorZone[290] 	contacts 	0
scalar Floatingscenario.manager.anchorZone[290] 	replicas 	0
scalar Floatingscenario.manager.anchorZone[290] 	xpos 	4400
scalar Floatingscenario.manager.anchorZone[290] 	ypos 	800
scalar Floatingscenario.manager.anchorZone[290] 	numNodes 	0
scalar Floatingscenario.manager.anchorZone[291] 	criticality 	0
scalar Floatingscenario.manager.anchorZone[291] 	criticality2 	0
scalar Floatingscenario.manager.anchorZone[291] 	criticality3 	0
scalar Floatingscenario.manager.anchorZone[291] 	removed 	0
scalar Floatingscenario.manager.anchorZone[291] 	infected 	0
scalar Floatingscenario.manager.anchorZone[291] 	transit 	0
scalar Floatingscenario.manager.anchorZone[291] 	contactsPerSecond 	0
scalar Floatingscenario.manager.anchorZone[291] 	timeAverage 	0
scalar Floatingscenario.manager.anchorZone[291] 	avgContacts 	0
scalar Floatingscenario.manager.anchorZone[291] 	contactTime 	0
scalar Floatingscenario.manager.anchorZone[291] 	contacts 	0
scalar Floatingscenario.manager.anchorZone[291] 	replicas 	0
scalar Floatingscenario.manager.anchorZone[291] 	xpos 	4400
scalar Floatingscenario.manager.anchorZone[291] 	ypos 	1000
scalar Floatingscenario.manager.anchorZone[291] 	numNodes 	0
scalar Floatingscenario.manager.anchorZone[292] 	criticality 	0
scalar Floatingscenario.manager.anchorZone[292] 	criticality2 	0
scalar Floatingscenario.manager.anchorZone[292] 	criticality3 	0
scalar Floatingscenario.manager.anchorZone[292] 	removed 	1
scalar Floatingscenario.manager.anchorZone[292] 	infected 	1
scalar Floatingscenario.manager.anchorZone[292] 	transit 	1
scalar Floatingscenario.manager.anchorZone[292] 	contactsPerSecond 	0
scalar Floatingscenario.manager.anchorZone[292] 	timeAverage 	0
scalar Floatingscenario.manager.anchorZone[292] 	avgContacts 	0
scalar Floatingscenario.manager.anchorZone[292] 	contactTime 	0
scalar Floatingscenario.manager.anchorZone[292] 	contacts 	0
scalar Floatingscenario.manager.anchorZone[292] 	replicas 	0
scalar Floatingscenario.manager.anchorZone[292] 	xpos 	4400
scalar Floatingscenario.manager.anchorZone[292] 	ypos 	1200
scalar Floatingscenario.manager.anchorZone[292] 	numNodes 	0
scalar Floatingscenario.manager.anchorZone[293] 	criticality 	0
scalar Floatingscenario.manager.anchorZone[293] 	criticality2 	0
scalar Floatingscenario.manager.anchorZone[293] 	criticality3 	0
scalar Floatingscenario.manager.anchorZone[293] 	removed 	1
scalar Floatingscenario.manager.anchorZone[293] 	infected 	1
scalar Floatingscenario.manager.anchorZone[293] 	transit 	6
scalar Floatingscenario.manager.anchorZone[293] 	contactsPerSecond 	0
scalar Floatingscenario.manager.anchorZone[293] 	timeAverage 	15.666666666667
scalar Floatingscenario.manager.anchorZone[293] 	avgContacts 	0
scalar Floatingscenario.manager.anchorZone[293] 	contactTime 	0
scalar Floatingscenario.manager.anchorZone[293] 	contacts 	0
scalar Floatingscenario.manager.anchorZone[293] 	replicas 	0
scalar Floatingscenario.manager.anchorZone[293] 	xpos 	4400
scalar Floatingscenario.manager.anchorZone[293] 	ypos 	1400
scalar Floatingscenario.manager.anchorZone[293] 	numNodes 	0
scalar Floatingscenario.manager.anchorZone[294] 	criticality 	0
scalar Floatingscenario.manager.anchorZone[294] 	criticality2 	0
scalar Floatingscenario.manager.anchorZone[294] 	criticality3 	0
scalar Floatingscenario.manager.anchorZone[294] 	removed 	1
scalar Floatingscenario.manager.anchorZone[294] 	infected 	1
scalar Floatingscenario.manager.anchorZone[294] 	transit 	2
scalar Floatingscenario.manager.anchorZone[294] 	contactsPerSecond 	0
scalar Floatingscenario.manager.anchorZone[294] 	timeAverage 	13.5
scalar Floatingscenario.manager.anchorZone[294] 	avgContacts 	0
scalar Floatingscenario.manager.anchorZone[294] 	contactTime 	0
scalar Floatingscenario.manager.anchorZone[294] 	contacts 	0
scalar Floatingscenario.manager.anchorZone[294] 	replicas 	0
scalar Floatingscenario.manager.anchorZone[294] 	xpos 	4400
scalar Floatingscenario.manager.anchorZone[294] 	ypos 	1600
scalar Floatingscenario.manager.anchorZone[294] 	numNodes 	0
scalar Floatingscenario.manager.anchorZone[295] 	criticality 	0
scalar Floatingscenario.manager.anchorZone[295] 	criticality2 	0
scalar Floatingscenario.manager.anchorZone[295] 	criticality3 	0
scalar Floatingscenario.manager.anchorZone[295] 	removed 	0
scalar Floatingscenario.manager.anchorZone[295] 	infected 	0
scalar Floatingscenario.manager.anchorZone[295] 	transit 	0
scalar Floatingscenario.manager.anchorZone[295] 	contactsPerSecond 	0
scalar Floatingscenario.manager.anchorZone[295] 	timeAverage 	0
scalar Floatingscenario.manager.anchorZone[295] 	avgContacts 	0
scalar Floatingscenario.manager.anchorZone[295] 	contactTime 	0
scalar Floatingscenario.manager.anchorZone[295] 	contacts 	0
scalar Floatingscenario.manager.anchorZone[295] 	replicas 	0
scalar Floatingscenario.manager.anchorZone[295] 	xpos 	4400
scalar Floatingscenario.manager.anchorZone[295] 	ypos 	1800
scalar Floatingscenario.manager.anchorZone[295] 	numNodes 	0
scalar Floatingscenario.manager.anchorZone[296] 	criticality 	0
scalar Floatingscenario.manager.anchorZone[296] 	criticality2 	0
scalar Floatingscenario.manager.anchorZone[296] 	criticality3 	0
scalar Floatingscenario.manager.anchorZone[296] 	removed 	0
scalar Floatingscenario.manager.anchorZone[296] 	infected 	0
scalar Floatingscenario.manager.anchorZone[296] 	transit 	0
scalar Floatingscenario.manager.anchorZone[296] 	contactsPerSecond 	0
scalar Floatingscenario.manager.anchorZone[296] 	timeAverage 	0
scalar Floatingscenario.manager.anchorZone[296] 	avgContacts 	0
scalar Floatingscenario.manager.anchorZone[296] 	contactTime 	0
scalar Floatingscenario.manager.anchorZone[296] 	contacts 	0
scalar Floatingscenario.manager.anchorZone[296] 	replicas 	0
scalar Floatingscenario.manager.anchorZone[296] 	xpos 	4400
scalar Floatingscenario.manager.anchorZone[296] 	ypos 	2000
scalar Floatingscenario.manager.anchorZone[296] 	numNodes 	0
scalar Floatingscenario.manager.anchorZone[297] 	criticality 	0
scalar Floatingscenario.manager.anchorZone[297] 	criticality2 	0
scalar Floatingscenario.manager.anchorZone[297] 	criticality3 	0
scalar Floatingscenario.manager.anchorZone[297] 	removed 	0
scalar Floatingscenario.manager.anchorZone[297] 	infected 	0
scalar Floatingscenario.manager.anchorZone[297] 	transit 	0
scalar Floatingscenario.manager.anchorZone[297] 	contactsPerSecond 	0
scalar Floatingscenario.manager.anchorZone[297] 	timeAverage 	0
scalar Floatingscenario.manager.anchorZone[297] 	avgContacts 	0
scalar Floatingscenario.manager.anchorZone[297] 	contactTime 	0
scalar Floatingscenario.manager.anchorZone[297] 	contacts 	0
scalar Floatingscenario.manager.anchorZone[297] 	replicas 	0
scalar Floatingscenario.manager.anchorZone[297] 	xpos 	4400
scalar Floatingscenario.manager.anchorZone[297] 	ypos 	2200
scalar Floatingscenario.manager.anchorZone[297] 	numNodes 	0
scalar Floatingscenario.manager.anchorZone[298] 	criticality 	0
scalar Floatingscenario.manager.anchorZone[298] 	criticality2 	0
scalar Floatingscenario.manager.anchorZone[298] 	criticality3 	0
scalar Floatingscenario.manager.anchorZone[298] 	removed 	0
scalar Floatingscenario.manager.anchorZone[298] 	infected 	0
scalar Floatingscenario.manager.anchorZone[298] 	transit 	0
scalar Floatingscenario.manager.anchorZone[298] 	contactsPerSecond 	0
scalar Floatingscenario.manager.anchorZone[298] 	timeAverage 	0
scalar Floatingscenario.manager.anchorZone[298] 	avgContacts 	0
scalar Floatingscenario.manager.anchorZone[298] 	contactTime 	0
scalar Floatingscenario.manager.anchorZone[298] 	contacts 	0
scalar Floatingscenario.manager.anchorZone[298] 	replicas 	0
scalar Floatingscenario.manager.anchorZone[298] 	xpos 	4400
scalar Floatingscenario.manager.anchorZone[298] 	ypos 	2400
scalar Floatingscenario.manager.anchorZone[298] 	numNodes 	0
